
---------- Begin Simulation Statistics ----------
simSeconds                                   0.000022                       # Number of seconds simulated (Second)
simTicks                                        21602                       # Number of ticks simulated (Tick)
finalTick                                       21602                       # Number of ticks from beginning of simulation (restored from checkpoints and never reset) (Tick)
simFreq                                    1000000000                       # The number of ticks per simulated second ((Tick/Second))
hostSeconds                                      0.08                       # Real time elapsed on the host (Second)
hostTickRate                                   255424                       # The number of ticks simulated per host second (ticks/s) ((Tick/Second))
hostMemory                                     746228                       # Number of bytes of host memory used (Byte)
system.clk_domain.clock                             1                       # Clock period in ticks (Tick)
system.cpu.power_state.pwrStateResidencyTicks::UNDEFINED        21602                       # Cumulative time (in ticks) in various power states (Tick)
system.mem_ctrls0.avgPriority_ruby.dir_cntrl0::samples        25.00                       # Average QoS priority value for accepted requests (Count)
system.mem_ctrls0.priorityMinLatency     0.000000019000                       # per QoS priority minimum request to response latency (Second)
system.mem_ctrls0.priorityMaxLatency     0.000000033000                       # per QoS priority maximum request to response latency (Second)
system.mem_ctrls0.numReadWriteTurnArounds            0                       # Number of turnarounds from READ to WRITE (Count)
system.mem_ctrls0.numWriteReadTurnArounds            0                       # Number of turnarounds from WRITE to READ (Count)
system.mem_ctrls0.numStayReadState                 54                       # Number of times bus staying in READ state (Count)
system.mem_ctrls0.numStayWriteState                 0                       # Number of times bus staying in WRITE state (Count)
system.mem_ctrls0.readReqs                         25                       # Number of read requests accepted (Count)
system.mem_ctrls0.writeReqs                         0                       # Number of write requests accepted (Count)
system.mem_ctrls0.readBursts                       25                       # Number of controller read bursts, including those serviced by the write queue (Count)
system.mem_ctrls0.writeBursts                       0                       # Number of controller write bursts, including those merged in the write queue (Count)
system.mem_ctrls0.servicedByWrQ                     0                       # Number of controller read bursts serviced by the write queue (Count)
system.mem_ctrls0.mergedWrBursts                    0                       # Number of controller write bursts merged with an existing one (Count)
system.mem_ctrls0.neitherReadNorWriteReqs            0                       # Number of requests that are neither read nor write (Count)
system.mem_ctrls0.avgRdQLen                      1.00                       # Average read queue length when enqueuing ((Count/Tick))
system.mem_ctrls0.avgWrQLen                      0.00                       # Average write queue length when enqueuing ((Count/Tick))
system.mem_ctrls0.numRdRetry                        0                       # Number of times read queue was full causing retry (Count)
system.mem_ctrls0.numWrRetry                        0                       # Number of times write queue was full causing retry (Count)
system.mem_ctrls0.readPktSize::0                    0                       # Read request sizes (log2) (Count)
system.mem_ctrls0.readPktSize::1                    0                       # Read request sizes (log2) (Count)
system.mem_ctrls0.readPktSize::2                    0                       # Read request sizes (log2) (Count)
system.mem_ctrls0.readPktSize::3                    0                       # Read request sizes (log2) (Count)
system.mem_ctrls0.readPktSize::4                    0                       # Read request sizes (log2) (Count)
system.mem_ctrls0.readPktSize::5                    0                       # Read request sizes (log2) (Count)
system.mem_ctrls0.readPktSize::6                   25                       # Read request sizes (log2) (Count)
system.mem_ctrls0.writePktSize::0                   0                       # Write request sizes (log2) (Count)
system.mem_ctrls0.writePktSize::1                   0                       # Write request sizes (log2) (Count)
system.mem_ctrls0.writePktSize::2                   0                       # Write request sizes (log2) (Count)
system.mem_ctrls0.writePktSize::3                   0                       # Write request sizes (log2) (Count)
system.mem_ctrls0.writePktSize::4                   0                       # Write request sizes (log2) (Count)
system.mem_ctrls0.writePktSize::5                   0                       # Write request sizes (log2) (Count)
system.mem_ctrls0.writePktSize::6                   0                       # Write request sizes (log2) (Count)
system.mem_ctrls0.rdQLenPdf::0                     25                       # What read queue length does an incoming req see (Count)
system.mem_ctrls0.rdQLenPdf::1                      0                       # What read queue length does an incoming req see (Count)
system.mem_ctrls0.rdQLenPdf::2                      0                       # What read queue length does an incoming req see (Count)
system.mem_ctrls0.rdQLenPdf::3                      0                       # What read queue length does an incoming req see (Count)
system.mem_ctrls0.rdQLenPdf::4                      0                       # What read queue length does an incoming req see (Count)
system.mem_ctrls0.rdQLenPdf::5                      0                       # What read queue length does an incoming req see (Count)
system.mem_ctrls0.rdQLenPdf::6                      0                       # What read queue length does an incoming req see (Count)
system.mem_ctrls0.rdQLenPdf::7                      0                       # What read queue length does an incoming req see (Count)
system.mem_ctrls0.rdQLenPdf::8                      0                       # What read queue length does an incoming req see (Count)
system.mem_ctrls0.rdQLenPdf::9                      0                       # What read queue length does an incoming req see (Count)
system.mem_ctrls0.rdQLenPdf::10                     0                       # What read queue length does an incoming req see (Count)
system.mem_ctrls0.rdQLenPdf::11                     0                       # What read queue length does an incoming req see (Count)
system.mem_ctrls0.rdQLenPdf::12                     0                       # What read queue length does an incoming req see (Count)
system.mem_ctrls0.rdQLenPdf::13                     0                       # What read queue length does an incoming req see (Count)
system.mem_ctrls0.rdQLenPdf::14                     0                       # What read queue length does an incoming req see (Count)
system.mem_ctrls0.rdQLenPdf::15                     0                       # What read queue length does an incoming req see (Count)
system.mem_ctrls0.rdQLenPdf::16                     0                       # What read queue length does an incoming req see (Count)
system.mem_ctrls0.rdQLenPdf::17                     0                       # What read queue length does an incoming req see (Count)
system.mem_ctrls0.rdQLenPdf::18                     0                       # What read queue length does an incoming req see (Count)
system.mem_ctrls0.rdQLenPdf::19                     0                       # What read queue length does an incoming req see (Count)
system.mem_ctrls0.rdQLenPdf::20                     0                       # What read queue length does an incoming req see (Count)
system.mem_ctrls0.rdQLenPdf::21                     0                       # What read queue length does an incoming req see (Count)
system.mem_ctrls0.rdQLenPdf::22                     0                       # What read queue length does an incoming req see (Count)
system.mem_ctrls0.rdQLenPdf::23                     0                       # What read queue length does an incoming req see (Count)
system.mem_ctrls0.rdQLenPdf::24                     0                       # What read queue length does an incoming req see (Count)
system.mem_ctrls0.rdQLenPdf::25                     0                       # What read queue length does an incoming req see (Count)
system.mem_ctrls0.rdQLenPdf::26                     0                       # What read queue length does an incoming req see (Count)
system.mem_ctrls0.rdQLenPdf::27                     0                       # What read queue length does an incoming req see (Count)
system.mem_ctrls0.rdQLenPdf::28                     0                       # What read queue length does an incoming req see (Count)
system.mem_ctrls0.rdQLenPdf::29                     0                       # What read queue length does an incoming req see (Count)
system.mem_ctrls0.rdQLenPdf::30                     0                       # What read queue length does an incoming req see (Count)
system.mem_ctrls0.rdQLenPdf::31                     0                       # What read queue length does an incoming req see (Count)
system.mem_ctrls0.wrQLenPdf::0                      0                       # What write queue length does an incoming req see (Count)
system.mem_ctrls0.wrQLenPdf::1                      0                       # What write queue length does an incoming req see (Count)
system.mem_ctrls0.wrQLenPdf::2                      0                       # What write queue length does an incoming req see (Count)
system.mem_ctrls0.wrQLenPdf::3                      0                       # What write queue length does an incoming req see (Count)
system.mem_ctrls0.wrQLenPdf::4                      0                       # What write queue length does an incoming req see (Count)
system.mem_ctrls0.wrQLenPdf::5                      0                       # What write queue length does an incoming req see (Count)
system.mem_ctrls0.wrQLenPdf::6                      0                       # What write queue length does an incoming req see (Count)
system.mem_ctrls0.wrQLenPdf::7                      0                       # What write queue length does an incoming req see (Count)
system.mem_ctrls0.wrQLenPdf::8                      0                       # What write queue length does an incoming req see (Count)
system.mem_ctrls0.wrQLenPdf::9                      0                       # What write queue length does an incoming req see (Count)
system.mem_ctrls0.wrQLenPdf::10                     0                       # What write queue length does an incoming req see (Count)
system.mem_ctrls0.wrQLenPdf::11                     0                       # What write queue length does an incoming req see (Count)
system.mem_ctrls0.wrQLenPdf::12                     0                       # What write queue length does an incoming req see (Count)
system.mem_ctrls0.wrQLenPdf::13                     0                       # What write queue length does an incoming req see (Count)
system.mem_ctrls0.wrQLenPdf::14                     0                       # What write queue length does an incoming req see (Count)
system.mem_ctrls0.wrQLenPdf::15                     0                       # What write queue length does an incoming req see (Count)
system.mem_ctrls0.wrQLenPdf::16                     0                       # What write queue length does an incoming req see (Count)
system.mem_ctrls0.wrQLenPdf::17                     0                       # What write queue length does an incoming req see (Count)
system.mem_ctrls0.wrQLenPdf::18                     0                       # What write queue length does an incoming req see (Count)
system.mem_ctrls0.wrQLenPdf::19                     0                       # What write queue length does an incoming req see (Count)
system.mem_ctrls0.wrQLenPdf::20                     0                       # What write queue length does an incoming req see (Count)
system.mem_ctrls0.wrQLenPdf::21                     0                       # What write queue length does an incoming req see (Count)
system.mem_ctrls0.wrQLenPdf::22                     0                       # What write queue length does an incoming req see (Count)
system.mem_ctrls0.wrQLenPdf::23                     0                       # What write queue length does an incoming req see (Count)
system.mem_ctrls0.wrQLenPdf::24                     0                       # What write queue length does an incoming req see (Count)
system.mem_ctrls0.wrQLenPdf::25                     0                       # What write queue length does an incoming req see (Count)
system.mem_ctrls0.wrQLenPdf::26                     0                       # What write queue length does an incoming req see (Count)
system.mem_ctrls0.wrQLenPdf::27                     0                       # What write queue length does an incoming req see (Count)
system.mem_ctrls0.wrQLenPdf::28                     0                       # What write queue length does an incoming req see (Count)
system.mem_ctrls0.wrQLenPdf::29                     0                       # What write queue length does an incoming req see (Count)
system.mem_ctrls0.wrQLenPdf::30                     0                       # What write queue length does an incoming req see (Count)
system.mem_ctrls0.wrQLenPdf::31                     0                       # What write queue length does an incoming req see (Count)
system.mem_ctrls0.wrQLenPdf::32                     0                       # What write queue length does an incoming req see (Count)
system.mem_ctrls0.wrQLenPdf::33                     0                       # What write queue length does an incoming req see (Count)
system.mem_ctrls0.wrQLenPdf::34                     0                       # What write queue length does an incoming req see (Count)
system.mem_ctrls0.wrQLenPdf::35                     0                       # What write queue length does an incoming req see (Count)
system.mem_ctrls0.wrQLenPdf::36                     0                       # What write queue length does an incoming req see (Count)
system.mem_ctrls0.wrQLenPdf::37                     0                       # What write queue length does an incoming req see (Count)
system.mem_ctrls0.wrQLenPdf::38                     0                       # What write queue length does an incoming req see (Count)
system.mem_ctrls0.wrQLenPdf::39                     0                       # What write queue length does an incoming req see (Count)
system.mem_ctrls0.wrQLenPdf::40                     0                       # What write queue length does an incoming req see (Count)
system.mem_ctrls0.wrQLenPdf::41                     0                       # What write queue length does an incoming req see (Count)
system.mem_ctrls0.wrQLenPdf::42                     0                       # What write queue length does an incoming req see (Count)
system.mem_ctrls0.wrQLenPdf::43                     0                       # What write queue length does an incoming req see (Count)
system.mem_ctrls0.wrQLenPdf::44                     0                       # What write queue length does an incoming req see (Count)
system.mem_ctrls0.wrQLenPdf::45                     0                       # What write queue length does an incoming req see (Count)
system.mem_ctrls0.wrQLenPdf::46                     0                       # What write queue length does an incoming req see (Count)
system.mem_ctrls0.wrQLenPdf::47                     0                       # What write queue length does an incoming req see (Count)
system.mem_ctrls0.wrQLenPdf::48                     0                       # What write queue length does an incoming req see (Count)
system.mem_ctrls0.wrQLenPdf::49                     0                       # What write queue length does an incoming req see (Count)
system.mem_ctrls0.wrQLenPdf::50                     0                       # What write queue length does an incoming req see (Count)
system.mem_ctrls0.wrQLenPdf::51                     0                       # What write queue length does an incoming req see (Count)
system.mem_ctrls0.wrQLenPdf::52                     0                       # What write queue length does an incoming req see (Count)
system.mem_ctrls0.wrQLenPdf::53                     0                       # What write queue length does an incoming req see (Count)
system.mem_ctrls0.wrQLenPdf::54                     0                       # What write queue length does an incoming req see (Count)
system.mem_ctrls0.wrQLenPdf::55                     0                       # What write queue length does an incoming req see (Count)
system.mem_ctrls0.wrQLenPdf::56                     0                       # What write queue length does an incoming req see (Count)
system.mem_ctrls0.wrQLenPdf::57                     0                       # What write queue length does an incoming req see (Count)
system.mem_ctrls0.wrQLenPdf::58                     0                       # What write queue length does an incoming req see (Count)
system.mem_ctrls0.wrQLenPdf::59                     0                       # What write queue length does an incoming req see (Count)
system.mem_ctrls0.wrQLenPdf::60                     0                       # What write queue length does an incoming req see (Count)
system.mem_ctrls0.wrQLenPdf::61                     0                       # What write queue length does an incoming req see (Count)
system.mem_ctrls0.wrQLenPdf::62                     0                       # What write queue length does an incoming req see (Count)
system.mem_ctrls0.wrQLenPdf::63                     0                       # What write queue length does an incoming req see (Count)
system.mem_ctrls0.bytesReadWrQ                      0                       # Total number of bytes read from write queue (Byte)
system.mem_ctrls0.bytesReadSys                   1600                       # Total read bytes from the system interface side (Byte)
system.mem_ctrls0.bytesWrittenSys                   0                       # Total written bytes from the system interface side (Byte)
system.mem_ctrls0.avgRdBWSys             74067215.99851865                       # Average system read bandwidth in Byte/s ((Byte/Second))
system.mem_ctrls0.avgWrBWSys               0.00000000                       # Average system write bandwidth in Byte/s ((Byte/Second))
system.mem_ctrls0.totGap                        20753                       # Total gap between requests (Tick)
system.mem_ctrls0.avgGap                       830.12                       # Average gap between requests ((Tick/Count))
system.mem_ctrls0.requestorReadBytes::ruby.dir_cntrl0         1600                       # Per-requestor bytes read from memory (Byte)
system.mem_ctrls0.requestorReadRate::ruby.dir_cntrl0 74067215.998518645763                       # Per-requestor bytes read from memory rate ((Byte/Second))
system.mem_ctrls0.requestorReadAccesses::ruby.dir_cntrl0           25                       # Per-requestor read serviced memory accesses (Count)
system.mem_ctrls0.requestorReadTotalLat::ruby.dir_cntrl0          517                       # Per-requestor read total memory access latency (Tick)
system.mem_ctrls0.requestorReadAvgLat::ruby.dir_cntrl0        20.68                       # Per-requestor read average memory access latency ((Tick/Count))
system.mem_ctrls0.dram.bytesRead::ruby.dir_cntrl0         1600                       # Number of bytes read from this memory (Byte)
system.mem_ctrls0.dram.bytesRead::total          1600                       # Number of bytes read from this memory (Byte)
system.mem_ctrls0.dram.numReads::ruby.dir_cntrl0           25                       # Number of read requests responded to by this memory (Count)
system.mem_ctrls0.dram.numReads::total             25                       # Number of read requests responded to by this memory (Count)
system.mem_ctrls0.dram.bwRead::ruby.dir_cntrl0     74067216                       # Total read bandwidth from this memory ((Byte/Second))
system.mem_ctrls0.dram.bwRead::total         74067216                       # Total read bandwidth from this memory ((Byte/Second))
system.mem_ctrls0.dram.bwTotal::ruby.dir_cntrl0     74067216                       # Total bandwidth to/from this memory ((Byte/Second))
system.mem_ctrls0.dram.bwTotal::total        74067216                       # Total bandwidth to/from this memory ((Byte/Second))
system.mem_ctrls0.dram.readBursts                  25                       # Number of DRAM read bursts (Count)
system.mem_ctrls0.dram.writeBursts                  0                       # Number of DRAM write bursts (Count)
system.mem_ctrls0.dram.perBankRdBursts::0           25                       # Per bank write bursts (Count)
system.mem_ctrls0.dram.perBankRdBursts::1            0                       # Per bank write bursts (Count)
system.mem_ctrls0.dram.perBankRdBursts::2            0                       # Per bank write bursts (Count)
system.mem_ctrls0.dram.perBankRdBursts::3            0                       # Per bank write bursts (Count)
system.mem_ctrls0.dram.perBankRdBursts::4            0                       # Per bank write bursts (Count)
system.mem_ctrls0.dram.perBankRdBursts::5            0                       # Per bank write bursts (Count)
system.mem_ctrls0.dram.perBankRdBursts::6            0                       # Per bank write bursts (Count)
system.mem_ctrls0.dram.perBankRdBursts::7            0                       # Per bank write bursts (Count)
system.mem_ctrls0.dram.perBankRdBursts::8            0                       # Per bank write bursts (Count)
system.mem_ctrls0.dram.perBankRdBursts::9            0                       # Per bank write bursts (Count)
system.mem_ctrls0.dram.perBankRdBursts::10            0                       # Per bank write bursts (Count)
system.mem_ctrls0.dram.perBankRdBursts::11            0                       # Per bank write bursts (Count)
system.mem_ctrls0.dram.perBankRdBursts::12            0                       # Per bank write bursts (Count)
system.mem_ctrls0.dram.perBankRdBursts::13            0                       # Per bank write bursts (Count)
system.mem_ctrls0.dram.perBankRdBursts::14            0                       # Per bank write bursts (Count)
system.mem_ctrls0.dram.perBankRdBursts::15            0                       # Per bank write bursts (Count)
system.mem_ctrls0.dram.perBankWrBursts::0            0                       # Per bank write bursts (Count)
system.mem_ctrls0.dram.perBankWrBursts::1            0                       # Per bank write bursts (Count)
system.mem_ctrls0.dram.perBankWrBursts::2            0                       # Per bank write bursts (Count)
system.mem_ctrls0.dram.perBankWrBursts::3            0                       # Per bank write bursts (Count)
system.mem_ctrls0.dram.perBankWrBursts::4            0                       # Per bank write bursts (Count)
system.mem_ctrls0.dram.perBankWrBursts::5            0                       # Per bank write bursts (Count)
system.mem_ctrls0.dram.perBankWrBursts::6            0                       # Per bank write bursts (Count)
system.mem_ctrls0.dram.perBankWrBursts::7            0                       # Per bank write bursts (Count)
system.mem_ctrls0.dram.perBankWrBursts::8            0                       # Per bank write bursts (Count)
system.mem_ctrls0.dram.perBankWrBursts::9            0                       # Per bank write bursts (Count)
system.mem_ctrls0.dram.perBankWrBursts::10            0                       # Per bank write bursts (Count)
system.mem_ctrls0.dram.perBankWrBursts::11            0                       # Per bank write bursts (Count)
system.mem_ctrls0.dram.perBankWrBursts::12            0                       # Per bank write bursts (Count)
system.mem_ctrls0.dram.perBankWrBursts::13            0                       # Per bank write bursts (Count)
system.mem_ctrls0.dram.perBankWrBursts::14            0                       # Per bank write bursts (Count)
system.mem_ctrls0.dram.perBankWrBursts::15            0                       # Per bank write bursts (Count)
system.mem_ctrls0.dram.totQLat                     42                       # Total ticks spent queuing (Tick)
system.mem_ctrls0.dram.totBusLat                  125                       # Total ticks spent in databus transfers (Tick)
system.mem_ctrls0.dram.totMemAccLat               517                       # Total ticks spent from burst creation until serviced by the DRAM (Tick)
system.mem_ctrls0.dram.avgQLat                   1.68                       # Average queueing delay per DRAM burst ((Tick/Count))
system.mem_ctrls0.dram.avgBusLat                 5.00                       # Average bus latency per DRAM burst ((Tick/Count))
system.mem_ctrls0.dram.avgMemAccLat             20.68                       # Average memory access latency per DRAM burst ((Tick/Count))
system.mem_ctrls0.dram.readRowHits                 22                       # Number of row buffer hits during reads (Count)
system.mem_ctrls0.dram.writeRowHits                 0                       # Number of row buffer hits during writes (Count)
system.mem_ctrls0.dram.readRowHitRate           88.00                       # Row buffer hit rate for reads (Ratio)
system.mem_ctrls0.dram.writeRowHitRate            nan                       # Row buffer hit rate for writes (Ratio)
system.mem_ctrls0.dram.bytesPerActivate::samples            2                       # Bytes accessed per row activation (Byte)
system.mem_ctrls0.dram.bytesPerActivate::mean          608                       # Bytes accessed per row activation (Byte)
system.mem_ctrls0.dram.bytesPerActivate::gmean   607.157311                       # Bytes accessed per row activation (Byte)
system.mem_ctrls0.dram.bytesPerActivate::stdev    45.254834                       # Bytes accessed per row activation (Byte)
system.mem_ctrls0.dram.bytesPerActivate::576-639            1     50.00%     50.00% # Bytes accessed per row activation (Byte)
system.mem_ctrls0.dram.bytesPerActivate::640-703            1     50.00%    100.00% # Bytes accessed per row activation (Byte)
system.mem_ctrls0.dram.bytesPerActivate::total            2                       # Bytes accessed per row activation (Byte)
system.mem_ctrls0.dram.dramBytesRead             1600                       # Total bytes read (Byte)
system.mem_ctrls0.dram.dramBytesWritten             0                       # Total bytes written (Byte)
system.mem_ctrls0.dram.avgRdBW              74.067216                       # Average DRAM read bandwidth in MiBytes/s ((Byte/Second))
system.mem_ctrls0.dram.avgWrBW                      0                       # Average DRAM write bandwidth in MiBytes/s ((Byte/Second))
system.mem_ctrls0.dram.peakBW                12800.00                       # Theoretical peak bandwidth in MiByte/s ((Byte/Second))
system.mem_ctrls0.dram.busUtil                   0.58                       # Data bus utilization in percentage (Ratio)
system.mem_ctrls0.dram.busUtilRead               0.58                       # Data bus utilization in percentage for reads (Ratio)
system.mem_ctrls0.dram.busUtilWrite              0.00                       # Data bus utilization in percentage for writes (Ratio)
system.mem_ctrls0.dram.pageHitRate              88.00                       # Row buffer hit rate, read and write combined (Ratio)
system.mem_ctrls0.dram.power_state.pwrStateResidencyTicks::UNDEFINED        21602                       # Cumulative time (in ticks) in various power states (Tick)
system.mem_ctrls0.dram.rank0.actEnergy          21420                       # Energy for activate commands per rank (pJ) (Joule)
system.mem_ctrls0.dram.rank0.preEnergy           7728                       # Energy for precharge commands per rank (pJ) (Joule)
system.mem_ctrls0.dram.rank0.readEnergy        142800                       # Energy for read commands per rank (pJ) (Joule)
system.mem_ctrls0.dram.rank0.writeEnergy            0                       # Energy for write commands per rank (pJ) (Joule)
system.mem_ctrls0.dram.rank0.refreshEnergy 1229280.000000                       # Energy for refresh commands per rank (pJ) (Joule)
system.mem_ctrls0.dram.rank0.actBackEnergy      9195240                       # Energy for active background per rank (pJ) (Joule)
system.mem_ctrls0.dram.rank0.preBackEnergy       551808                       # Energy for precharge background per rank (pJ) (Joule)
system.mem_ctrls0.dram.rank0.actPowerDownEnergy            0                       # Energy for active power-down per rank (pJ) (Joule)
system.mem_ctrls0.dram.rank0.prePowerDownEnergy            0                       # Energy for precharge power-down per rank (pJ) (Joule)
system.mem_ctrls0.dram.rank0.selfRefreshEnergy            0                       # Energy for self refresh per rank (pJ) (Joule)
system.mem_ctrls0.dram.rank0.totalEnergy     11148276                       # Total energy per rank (pJ) (Joule)
system.mem_ctrls0.dram.rank0.averagePower   516.076104                       # Core power per rank (mW) (Watt)
system.mem_ctrls0.dram.rank0.totalIdleTime            0                       # Total Idle time Per DRAM Rank (Tick)
system.mem_ctrls0.dram.rank0.pwrStateTime::IDLE         1381                       # Time in different power states (Tick)
system.mem_ctrls0.dram.rank0.pwrStateTime::REF          520                       # Time in different power states (Tick)
system.mem_ctrls0.dram.rank0.pwrStateTime::SREF            0                       # Time in different power states (Tick)
system.mem_ctrls0.dram.rank0.pwrStateTime::PRE_PDN            0                       # Time in different power states (Tick)
system.mem_ctrls0.dram.rank0.pwrStateTime::ACT        19701                       # Time in different power states (Tick)
system.mem_ctrls0.dram.rank0.pwrStateTime::ACT_PDN            0                       # Time in different power states (Tick)
system.mem_ctrls0.dram.rank1.actEnergy              0                       # Energy for activate commands per rank (pJ) (Joule)
system.mem_ctrls0.dram.rank1.preEnergy              0                       # Energy for precharge commands per rank (pJ) (Joule)
system.mem_ctrls0.dram.rank1.readEnergy             0                       # Energy for read commands per rank (pJ) (Joule)
system.mem_ctrls0.dram.rank1.writeEnergy            0                       # Energy for write commands per rank (pJ) (Joule)
system.mem_ctrls0.dram.rank1.refreshEnergy 1229280.000000                       # Energy for refresh commands per rank (pJ) (Joule)
system.mem_ctrls0.dram.rank1.actBackEnergy       224352                       # Energy for active background per rank (pJ) (Joule)
system.mem_ctrls0.dram.rank1.preBackEnergy      8106240                       # Energy for precharge background per rank (pJ) (Joule)
system.mem_ctrls0.dram.rank1.actPowerDownEnergy            0                       # Energy for active power-down per rank (pJ) (Joule)
system.mem_ctrls0.dram.rank1.prePowerDownEnergy            0                       # Energy for precharge power-down per rank (pJ) (Joule)
system.mem_ctrls0.dram.rank1.selfRefreshEnergy            0                       # Energy for self refresh per rank (pJ) (Joule)
system.mem_ctrls0.dram.rank1.totalEnergy      9559872                       # Total energy per rank (pJ) (Joule)
system.mem_ctrls0.dram.rank1.averagePower   442.545690                       # Core power per rank (mW) (Watt)
system.mem_ctrls0.dram.rank1.totalIdleTime            0                       # Total Idle time Per DRAM Rank (Tick)
system.mem_ctrls0.dram.rank1.pwrStateTime::IDLE        21082                       # Time in different power states (Tick)
system.mem_ctrls0.dram.rank1.pwrStateTime::REF          520                       # Time in different power states (Tick)
system.mem_ctrls0.dram.rank1.pwrStateTime::SREF            0                       # Time in different power states (Tick)
system.mem_ctrls0.dram.rank1.pwrStateTime::PRE_PDN            0                       # Time in different power states (Tick)
system.mem_ctrls0.dram.rank1.pwrStateTime::ACT            0                       # Time in different power states (Tick)
system.mem_ctrls0.dram.rank1.pwrStateTime::ACT_PDN            0                       # Time in different power states (Tick)
system.mem_ctrls0.power_state.pwrStateResidencyTicks::UNDEFINED        21602                       # Cumulative time (in ticks) in various power states (Tick)
system.mem_ctrls1.avgPriority_ruby.dir_cntrl1::samples        25.00                       # Average QoS priority value for accepted requests (Count)
system.mem_ctrls1.priorityMinLatency     0.000000019000                       # per QoS priority minimum request to response latency (Second)
system.mem_ctrls1.priorityMaxLatency     0.000000305000                       # per QoS priority maximum request to response latency (Second)
system.mem_ctrls1.numReadWriteTurnArounds            0                       # Number of turnarounds from READ to WRITE (Count)
system.mem_ctrls1.numWriteReadTurnArounds            0                       # Number of turnarounds from WRITE to READ (Count)
system.mem_ctrls1.numStayReadState                 54                       # Number of times bus staying in READ state (Count)
system.mem_ctrls1.numStayWriteState                 0                       # Number of times bus staying in WRITE state (Count)
system.mem_ctrls1.readReqs                         25                       # Number of read requests accepted (Count)
system.mem_ctrls1.writeReqs                         0                       # Number of write requests accepted (Count)
system.mem_ctrls1.readBursts                       25                       # Number of controller read bursts, including those serviced by the write queue (Count)
system.mem_ctrls1.writeBursts                       0                       # Number of controller write bursts, including those merged in the write queue (Count)
system.mem_ctrls1.servicedByWrQ                     0                       # Number of controller read bursts serviced by the write queue (Count)
system.mem_ctrls1.mergedWrBursts                    0                       # Number of controller write bursts merged with an existing one (Count)
system.mem_ctrls1.neitherReadNorWriteReqs            0                       # Number of requests that are neither read nor write (Count)
system.mem_ctrls1.avgRdQLen                      0.99                       # Average read queue length when enqueuing ((Count/Tick))
system.mem_ctrls1.avgWrQLen                      0.00                       # Average write queue length when enqueuing ((Count/Tick))
system.mem_ctrls1.numRdRetry                        0                       # Number of times read queue was full causing retry (Count)
system.mem_ctrls1.numWrRetry                        0                       # Number of times write queue was full causing retry (Count)
system.mem_ctrls1.readPktSize::0                    0                       # Read request sizes (log2) (Count)
system.mem_ctrls1.readPktSize::1                    0                       # Read request sizes (log2) (Count)
system.mem_ctrls1.readPktSize::2                    0                       # Read request sizes (log2) (Count)
system.mem_ctrls1.readPktSize::3                    0                       # Read request sizes (log2) (Count)
system.mem_ctrls1.readPktSize::4                    0                       # Read request sizes (log2) (Count)
system.mem_ctrls1.readPktSize::5                    0                       # Read request sizes (log2) (Count)
system.mem_ctrls1.readPktSize::6                   25                       # Read request sizes (log2) (Count)
system.mem_ctrls1.writePktSize::0                   0                       # Write request sizes (log2) (Count)
system.mem_ctrls1.writePktSize::1                   0                       # Write request sizes (log2) (Count)
system.mem_ctrls1.writePktSize::2                   0                       # Write request sizes (log2) (Count)
system.mem_ctrls1.writePktSize::3                   0                       # Write request sizes (log2) (Count)
system.mem_ctrls1.writePktSize::4                   0                       # Write request sizes (log2) (Count)
system.mem_ctrls1.writePktSize::5                   0                       # Write request sizes (log2) (Count)
system.mem_ctrls1.writePktSize::6                   0                       # Write request sizes (log2) (Count)
system.mem_ctrls1.rdQLenPdf::0                     25                       # What read queue length does an incoming req see (Count)
system.mem_ctrls1.rdQLenPdf::1                      0                       # What read queue length does an incoming req see (Count)
system.mem_ctrls1.rdQLenPdf::2                      0                       # What read queue length does an incoming req see (Count)
system.mem_ctrls1.rdQLenPdf::3                      0                       # What read queue length does an incoming req see (Count)
system.mem_ctrls1.rdQLenPdf::4                      0                       # What read queue length does an incoming req see (Count)
system.mem_ctrls1.rdQLenPdf::5                      0                       # What read queue length does an incoming req see (Count)
system.mem_ctrls1.rdQLenPdf::6                      0                       # What read queue length does an incoming req see (Count)
system.mem_ctrls1.rdQLenPdf::7                      0                       # What read queue length does an incoming req see (Count)
system.mem_ctrls1.rdQLenPdf::8                      0                       # What read queue length does an incoming req see (Count)
system.mem_ctrls1.rdQLenPdf::9                      0                       # What read queue length does an incoming req see (Count)
system.mem_ctrls1.rdQLenPdf::10                     0                       # What read queue length does an incoming req see (Count)
system.mem_ctrls1.rdQLenPdf::11                     0                       # What read queue length does an incoming req see (Count)
system.mem_ctrls1.rdQLenPdf::12                     0                       # What read queue length does an incoming req see (Count)
system.mem_ctrls1.rdQLenPdf::13                     0                       # What read queue length does an incoming req see (Count)
system.mem_ctrls1.rdQLenPdf::14                     0                       # What read queue length does an incoming req see (Count)
system.mem_ctrls1.rdQLenPdf::15                     0                       # What read queue length does an incoming req see (Count)
system.mem_ctrls1.rdQLenPdf::16                     0                       # What read queue length does an incoming req see (Count)
system.mem_ctrls1.rdQLenPdf::17                     0                       # What read queue length does an incoming req see (Count)
system.mem_ctrls1.rdQLenPdf::18                     0                       # What read queue length does an incoming req see (Count)
system.mem_ctrls1.rdQLenPdf::19                     0                       # What read queue length does an incoming req see (Count)
system.mem_ctrls1.rdQLenPdf::20                     0                       # What read queue length does an incoming req see (Count)
system.mem_ctrls1.rdQLenPdf::21                     0                       # What read queue length does an incoming req see (Count)
system.mem_ctrls1.rdQLenPdf::22                     0                       # What read queue length does an incoming req see (Count)
system.mem_ctrls1.rdQLenPdf::23                     0                       # What read queue length does an incoming req see (Count)
system.mem_ctrls1.rdQLenPdf::24                     0                       # What read queue length does an incoming req see (Count)
system.mem_ctrls1.rdQLenPdf::25                     0                       # What read queue length does an incoming req see (Count)
system.mem_ctrls1.rdQLenPdf::26                     0                       # What read queue length does an incoming req see (Count)
system.mem_ctrls1.rdQLenPdf::27                     0                       # What read queue length does an incoming req see (Count)
system.mem_ctrls1.rdQLenPdf::28                     0                       # What read queue length does an incoming req see (Count)
system.mem_ctrls1.rdQLenPdf::29                     0                       # What read queue length does an incoming req see (Count)
system.mem_ctrls1.rdQLenPdf::30                     0                       # What read queue length does an incoming req see (Count)
system.mem_ctrls1.rdQLenPdf::31                     0                       # What read queue length does an incoming req see (Count)
system.mem_ctrls1.wrQLenPdf::0                      0                       # What write queue length does an incoming req see (Count)
system.mem_ctrls1.wrQLenPdf::1                      0                       # What write queue length does an incoming req see (Count)
system.mem_ctrls1.wrQLenPdf::2                      0                       # What write queue length does an incoming req see (Count)
system.mem_ctrls1.wrQLenPdf::3                      0                       # What write queue length does an incoming req see (Count)
system.mem_ctrls1.wrQLenPdf::4                      0                       # What write queue length does an incoming req see (Count)
system.mem_ctrls1.wrQLenPdf::5                      0                       # What write queue length does an incoming req see (Count)
system.mem_ctrls1.wrQLenPdf::6                      0                       # What write queue length does an incoming req see (Count)
system.mem_ctrls1.wrQLenPdf::7                      0                       # What write queue length does an incoming req see (Count)
system.mem_ctrls1.wrQLenPdf::8                      0                       # What write queue length does an incoming req see (Count)
system.mem_ctrls1.wrQLenPdf::9                      0                       # What write queue length does an incoming req see (Count)
system.mem_ctrls1.wrQLenPdf::10                     0                       # What write queue length does an incoming req see (Count)
system.mem_ctrls1.wrQLenPdf::11                     0                       # What write queue length does an incoming req see (Count)
system.mem_ctrls1.wrQLenPdf::12                     0                       # What write queue length does an incoming req see (Count)
system.mem_ctrls1.wrQLenPdf::13                     0                       # What write queue length does an incoming req see (Count)
system.mem_ctrls1.wrQLenPdf::14                     0                       # What write queue length does an incoming req see (Count)
system.mem_ctrls1.wrQLenPdf::15                     0                       # What write queue length does an incoming req see (Count)
system.mem_ctrls1.wrQLenPdf::16                     0                       # What write queue length does an incoming req see (Count)
system.mem_ctrls1.wrQLenPdf::17                     0                       # What write queue length does an incoming req see (Count)
system.mem_ctrls1.wrQLenPdf::18                     0                       # What write queue length does an incoming req see (Count)
system.mem_ctrls1.wrQLenPdf::19                     0                       # What write queue length does an incoming req see (Count)
system.mem_ctrls1.wrQLenPdf::20                     0                       # What write queue length does an incoming req see (Count)
system.mem_ctrls1.wrQLenPdf::21                     0                       # What write queue length does an incoming req see (Count)
system.mem_ctrls1.wrQLenPdf::22                     0                       # What write queue length does an incoming req see (Count)
system.mem_ctrls1.wrQLenPdf::23                     0                       # What write queue length does an incoming req see (Count)
system.mem_ctrls1.wrQLenPdf::24                     0                       # What write queue length does an incoming req see (Count)
system.mem_ctrls1.wrQLenPdf::25                     0                       # What write queue length does an incoming req see (Count)
system.mem_ctrls1.wrQLenPdf::26                     0                       # What write queue length does an incoming req see (Count)
system.mem_ctrls1.wrQLenPdf::27                     0                       # What write queue length does an incoming req see (Count)
system.mem_ctrls1.wrQLenPdf::28                     0                       # What write queue length does an incoming req see (Count)
system.mem_ctrls1.wrQLenPdf::29                     0                       # What write queue length does an incoming req see (Count)
system.mem_ctrls1.wrQLenPdf::30                     0                       # What write queue length does an incoming req see (Count)
system.mem_ctrls1.wrQLenPdf::31                     0                       # What write queue length does an incoming req see (Count)
system.mem_ctrls1.wrQLenPdf::32                     0                       # What write queue length does an incoming req see (Count)
system.mem_ctrls1.wrQLenPdf::33                     0                       # What write queue length does an incoming req see (Count)
system.mem_ctrls1.wrQLenPdf::34                     0                       # What write queue length does an incoming req see (Count)
system.mem_ctrls1.wrQLenPdf::35                     0                       # What write queue length does an incoming req see (Count)
system.mem_ctrls1.wrQLenPdf::36                     0                       # What write queue length does an incoming req see (Count)
system.mem_ctrls1.wrQLenPdf::37                     0                       # What write queue length does an incoming req see (Count)
system.mem_ctrls1.wrQLenPdf::38                     0                       # What write queue length does an incoming req see (Count)
system.mem_ctrls1.wrQLenPdf::39                     0                       # What write queue length does an incoming req see (Count)
system.mem_ctrls1.wrQLenPdf::40                     0                       # What write queue length does an incoming req see (Count)
system.mem_ctrls1.wrQLenPdf::41                     0                       # What write queue length does an incoming req see (Count)
system.mem_ctrls1.wrQLenPdf::42                     0                       # What write queue length does an incoming req see (Count)
system.mem_ctrls1.wrQLenPdf::43                     0                       # What write queue length does an incoming req see (Count)
system.mem_ctrls1.wrQLenPdf::44                     0                       # What write queue length does an incoming req see (Count)
system.mem_ctrls1.wrQLenPdf::45                     0                       # What write queue length does an incoming req see (Count)
system.mem_ctrls1.wrQLenPdf::46                     0                       # What write queue length does an incoming req see (Count)
system.mem_ctrls1.wrQLenPdf::47                     0                       # What write queue length does an incoming req see (Count)
system.mem_ctrls1.wrQLenPdf::48                     0                       # What write queue length does an incoming req see (Count)
system.mem_ctrls1.wrQLenPdf::49                     0                       # What write queue length does an incoming req see (Count)
system.mem_ctrls1.wrQLenPdf::50                     0                       # What write queue length does an incoming req see (Count)
system.mem_ctrls1.wrQLenPdf::51                     0                       # What write queue length does an incoming req see (Count)
system.mem_ctrls1.wrQLenPdf::52                     0                       # What write queue length does an incoming req see (Count)
system.mem_ctrls1.wrQLenPdf::53                     0                       # What write queue length does an incoming req see (Count)
system.mem_ctrls1.wrQLenPdf::54                     0                       # What write queue length does an incoming req see (Count)
system.mem_ctrls1.wrQLenPdf::55                     0                       # What write queue length does an incoming req see (Count)
system.mem_ctrls1.wrQLenPdf::56                     0                       # What write queue length does an incoming req see (Count)
system.mem_ctrls1.wrQLenPdf::57                     0                       # What write queue length does an incoming req see (Count)
system.mem_ctrls1.wrQLenPdf::58                     0                       # What write queue length does an incoming req see (Count)
system.mem_ctrls1.wrQLenPdf::59                     0                       # What write queue length does an incoming req see (Count)
system.mem_ctrls1.wrQLenPdf::60                     0                       # What write queue length does an incoming req see (Count)
system.mem_ctrls1.wrQLenPdf::61                     0                       # What write queue length does an incoming req see (Count)
system.mem_ctrls1.wrQLenPdf::62                     0                       # What write queue length does an incoming req see (Count)
system.mem_ctrls1.wrQLenPdf::63                     0                       # What write queue length does an incoming req see (Count)
system.mem_ctrls1.bytesReadWrQ                      0                       # Total number of bytes read from write queue (Byte)
system.mem_ctrls1.bytesReadSys                   1600                       # Total read bytes from the system interface side (Byte)
system.mem_ctrls1.bytesWrittenSys                   0                       # Total written bytes from the system interface side (Byte)
system.mem_ctrls1.avgRdBWSys             74067215.99851865                       # Average system read bandwidth in Byte/s ((Byte/Second))
system.mem_ctrls1.avgWrBWSys               0.00000000                       # Average system write bandwidth in Byte/s ((Byte/Second))
system.mem_ctrls1.totGap                        20739                       # Total gap between requests (Tick)
system.mem_ctrls1.avgGap                       829.56                       # Average gap between requests ((Tick/Count))
system.mem_ctrls1.requestorReadBytes::ruby.dir_cntrl1         1600                       # Per-requestor bytes read from memory (Byte)
system.mem_ctrls1.requestorReadRate::ruby.dir_cntrl1 74067215.998518645763                       # Per-requestor bytes read from memory rate ((Byte/Second))
system.mem_ctrls1.requestorReadAccesses::ruby.dir_cntrl1           25                       # Per-requestor read serviced memory accesses (Count)
system.mem_ctrls1.requestorReadTotalLat::ruby.dir_cntrl1          748                       # Per-requestor read total memory access latency (Tick)
system.mem_ctrls1.requestorReadAvgLat::ruby.dir_cntrl1        29.92                       # Per-requestor read average memory access latency ((Tick/Count))
system.mem_ctrls1.dram.bytesRead::ruby.dir_cntrl1         1600                       # Number of bytes read from this memory (Byte)
system.mem_ctrls1.dram.bytesRead::total          1600                       # Number of bytes read from this memory (Byte)
system.mem_ctrls1.dram.numReads::ruby.dir_cntrl1           25                       # Number of read requests responded to by this memory (Count)
system.mem_ctrls1.dram.numReads::total             25                       # Number of read requests responded to by this memory (Count)
system.mem_ctrls1.dram.bwRead::ruby.dir_cntrl1     74067216                       # Total read bandwidth from this memory ((Byte/Second))
system.mem_ctrls1.dram.bwRead::total         74067216                       # Total read bandwidth from this memory ((Byte/Second))
system.mem_ctrls1.dram.bwTotal::ruby.dir_cntrl1     74067216                       # Total bandwidth to/from this memory ((Byte/Second))
system.mem_ctrls1.dram.bwTotal::total        74067216                       # Total bandwidth to/from this memory ((Byte/Second))
system.mem_ctrls1.dram.readBursts                  25                       # Number of DRAM read bursts (Count)
system.mem_ctrls1.dram.writeBursts                  0                       # Number of DRAM write bursts (Count)
system.mem_ctrls1.dram.perBankRdBursts::0           25                       # Per bank write bursts (Count)
system.mem_ctrls1.dram.perBankRdBursts::1            0                       # Per bank write bursts (Count)
system.mem_ctrls1.dram.perBankRdBursts::2            0                       # Per bank write bursts (Count)
system.mem_ctrls1.dram.perBankRdBursts::3            0                       # Per bank write bursts (Count)
system.mem_ctrls1.dram.perBankRdBursts::4            0                       # Per bank write bursts (Count)
system.mem_ctrls1.dram.perBankRdBursts::5            0                       # Per bank write bursts (Count)
system.mem_ctrls1.dram.perBankRdBursts::6            0                       # Per bank write bursts (Count)
system.mem_ctrls1.dram.perBankRdBursts::7            0                       # Per bank write bursts (Count)
system.mem_ctrls1.dram.perBankRdBursts::8            0                       # Per bank write bursts (Count)
system.mem_ctrls1.dram.perBankRdBursts::9            0                       # Per bank write bursts (Count)
system.mem_ctrls1.dram.perBankRdBursts::10            0                       # Per bank write bursts (Count)
system.mem_ctrls1.dram.perBankRdBursts::11            0                       # Per bank write bursts (Count)
system.mem_ctrls1.dram.perBankRdBursts::12            0                       # Per bank write bursts (Count)
system.mem_ctrls1.dram.perBankRdBursts::13            0                       # Per bank write bursts (Count)
system.mem_ctrls1.dram.perBankRdBursts::14            0                       # Per bank write bursts (Count)
system.mem_ctrls1.dram.perBankRdBursts::15            0                       # Per bank write bursts (Count)
system.mem_ctrls1.dram.perBankWrBursts::0            0                       # Per bank write bursts (Count)
system.mem_ctrls1.dram.perBankWrBursts::1            0                       # Per bank write bursts (Count)
system.mem_ctrls1.dram.perBankWrBursts::2            0                       # Per bank write bursts (Count)
system.mem_ctrls1.dram.perBankWrBursts::3            0                       # Per bank write bursts (Count)
system.mem_ctrls1.dram.perBankWrBursts::4            0                       # Per bank write bursts (Count)
system.mem_ctrls1.dram.perBankWrBursts::5            0                       # Per bank write bursts (Count)
system.mem_ctrls1.dram.perBankWrBursts::6            0                       # Per bank write bursts (Count)
system.mem_ctrls1.dram.perBankWrBursts::7            0                       # Per bank write bursts (Count)
system.mem_ctrls1.dram.perBankWrBursts::8            0                       # Per bank write bursts (Count)
system.mem_ctrls1.dram.perBankWrBursts::9            0                       # Per bank write bursts (Count)
system.mem_ctrls1.dram.perBankWrBursts::10            0                       # Per bank write bursts (Count)
system.mem_ctrls1.dram.perBankWrBursts::11            0                       # Per bank write bursts (Count)
system.mem_ctrls1.dram.perBankWrBursts::12            0                       # Per bank write bursts (Count)
system.mem_ctrls1.dram.perBankWrBursts::13            0                       # Per bank write bursts (Count)
system.mem_ctrls1.dram.perBankWrBursts::14            0                       # Per bank write bursts (Count)
system.mem_ctrls1.dram.perBankWrBursts::15            0                       # Per bank write bursts (Count)
system.mem_ctrls1.dram.totQLat                    273                       # Total ticks spent queuing (Tick)
system.mem_ctrls1.dram.totBusLat                  125                       # Total ticks spent in databus transfers (Tick)
system.mem_ctrls1.dram.totMemAccLat               748                       # Total ticks spent from burst creation until serviced by the DRAM (Tick)
system.mem_ctrls1.dram.avgQLat                  10.92                       # Average queueing delay per DRAM burst ((Tick/Count))
system.mem_ctrls1.dram.avgBusLat                 5.00                       # Average bus latency per DRAM burst ((Tick/Count))
system.mem_ctrls1.dram.avgMemAccLat             29.92                       # Average memory access latency per DRAM burst ((Tick/Count))
system.mem_ctrls1.dram.readRowHits                 22                       # Number of row buffer hits during reads (Count)
system.mem_ctrls1.dram.writeRowHits                 0                       # Number of row buffer hits during writes (Count)
system.mem_ctrls1.dram.readRowHitRate           88.00                       # Row buffer hit rate for reads (Ratio)
system.mem_ctrls1.dram.writeRowHitRate            nan                       # Row buffer hit rate for writes (Ratio)
system.mem_ctrls1.dram.bytesPerActivate::samples            2                       # Bytes accessed per row activation (Byte)
system.mem_ctrls1.dram.bytesPerActivate::mean          576                       # Bytes accessed per row activation (Byte)
system.mem_ctrls1.dram.bytesPerActivate::gmean   576.000000                       # Bytes accessed per row activation (Byte)
system.mem_ctrls1.dram.bytesPerActivate::576-639            2    100.00%    100.00% # Bytes accessed per row activation (Byte)
system.mem_ctrls1.dram.bytesPerActivate::total            2                       # Bytes accessed per row activation (Byte)
system.mem_ctrls1.dram.dramBytesRead             1600                       # Total bytes read (Byte)
system.mem_ctrls1.dram.dramBytesWritten             0                       # Total bytes written (Byte)
system.mem_ctrls1.dram.avgRdBW              74.067216                       # Average DRAM read bandwidth in MiBytes/s ((Byte/Second))
system.mem_ctrls1.dram.avgWrBW                      0                       # Average DRAM write bandwidth in MiBytes/s ((Byte/Second))
system.mem_ctrls1.dram.peakBW                12800.00                       # Theoretical peak bandwidth in MiByte/s ((Byte/Second))
system.mem_ctrls1.dram.busUtil                   0.58                       # Data bus utilization in percentage (Ratio)
system.mem_ctrls1.dram.busUtilRead               0.58                       # Data bus utilization in percentage for reads (Ratio)
system.mem_ctrls1.dram.busUtilWrite              0.00                       # Data bus utilization in percentage for writes (Ratio)
system.mem_ctrls1.dram.pageHitRate              88.00                       # Row buffer hit rate, read and write combined (Ratio)
system.mem_ctrls1.dram.power_state.pwrStateResidencyTicks::UNDEFINED        21602                       # Cumulative time (in ticks) in various power states (Tick)
system.mem_ctrls1.dram.rank0.actEnergy          21420                       # Energy for activate commands per rank (pJ) (Joule)
system.mem_ctrls1.dram.rank0.preEnergy           7728                       # Energy for precharge commands per rank (pJ) (Joule)
system.mem_ctrls1.dram.rank0.readEnergy        142800                       # Energy for read commands per rank (pJ) (Joule)
system.mem_ctrls1.dram.rank0.writeEnergy            0                       # Energy for write commands per rank (pJ) (Joule)
system.mem_ctrls1.dram.rank0.refreshEnergy 1229280.000000                       # Energy for refresh commands per rank (pJ) (Joule)
system.mem_ctrls1.dram.rank0.actBackEnergy      9710520                       # Energy for active background per rank (pJ) (Joule)
system.mem_ctrls1.dram.rank0.preBackEnergy       117888                       # Energy for precharge background per rank (pJ) (Joule)
system.mem_ctrls1.dram.rank0.actPowerDownEnergy            0                       # Energy for active power-down per rank (pJ) (Joule)
system.mem_ctrls1.dram.rank0.prePowerDownEnergy            0                       # Energy for precharge power-down per rank (pJ) (Joule)
system.mem_ctrls1.dram.rank0.selfRefreshEnergy            0                       # Energy for self refresh per rank (pJ) (Joule)
system.mem_ctrls1.dram.rank0.totalEnergy     11229636                       # Total energy per rank (pJ) (Joule)
system.mem_ctrls1.dram.rank0.averagePower   519.842422                       # Core power per rank (mW) (Watt)
system.mem_ctrls1.dram.rank0.totalIdleTime            0                       # Total Idle time Per DRAM Rank (Tick)
system.mem_ctrls1.dram.rank0.pwrStateTime::IDLE          251                       # Time in different power states (Tick)
system.mem_ctrls1.dram.rank0.pwrStateTime::REF          520                       # Time in different power states (Tick)
system.mem_ctrls1.dram.rank0.pwrStateTime::SREF            0                       # Time in different power states (Tick)
system.mem_ctrls1.dram.rank0.pwrStateTime::PRE_PDN            0                       # Time in different power states (Tick)
system.mem_ctrls1.dram.rank0.pwrStateTime::ACT        20831                       # Time in different power states (Tick)
system.mem_ctrls1.dram.rank0.pwrStateTime::ACT_PDN            0                       # Time in different power states (Tick)
system.mem_ctrls1.dram.rank1.actEnergy              0                       # Energy for activate commands per rank (pJ) (Joule)
system.mem_ctrls1.dram.rank1.preEnergy              0                       # Energy for precharge commands per rank (pJ) (Joule)
system.mem_ctrls1.dram.rank1.readEnergy             0                       # Energy for read commands per rank (pJ) (Joule)
system.mem_ctrls1.dram.rank1.writeEnergy            0                       # Energy for write commands per rank (pJ) (Joule)
system.mem_ctrls1.dram.rank1.refreshEnergy 1229280.000000                       # Energy for refresh commands per rank (pJ) (Joule)
system.mem_ctrls1.dram.rank1.actBackEnergy       224352                       # Energy for active background per rank (pJ) (Joule)
system.mem_ctrls1.dram.rank1.preBackEnergy      8106240                       # Energy for precharge background per rank (pJ) (Joule)
system.mem_ctrls1.dram.rank1.actPowerDownEnergy            0                       # Energy for active power-down per rank (pJ) (Joule)
system.mem_ctrls1.dram.rank1.prePowerDownEnergy            0                       # Energy for precharge power-down per rank (pJ) (Joule)
system.mem_ctrls1.dram.rank1.selfRefreshEnergy            0                       # Energy for self refresh per rank (pJ) (Joule)
system.mem_ctrls1.dram.rank1.totalEnergy      9559872                       # Total energy per rank (pJ) (Joule)
system.mem_ctrls1.dram.rank1.averagePower   442.545690                       # Core power per rank (mW) (Watt)
system.mem_ctrls1.dram.rank1.totalIdleTime            0                       # Total Idle time Per DRAM Rank (Tick)
system.mem_ctrls1.dram.rank1.pwrStateTime::IDLE        21082                       # Time in different power states (Tick)
system.mem_ctrls1.dram.rank1.pwrStateTime::REF          520                       # Time in different power states (Tick)
system.mem_ctrls1.dram.rank1.pwrStateTime::SREF            0                       # Time in different power states (Tick)
system.mem_ctrls1.dram.rank1.pwrStateTime::PRE_PDN            0                       # Time in different power states (Tick)
system.mem_ctrls1.dram.rank1.pwrStateTime::ACT            0                       # Time in different power states (Tick)
system.mem_ctrls1.dram.rank1.pwrStateTime::ACT_PDN            0                       # Time in different power states (Tick)
system.mem_ctrls1.power_state.pwrStateResidencyTicks::UNDEFINED        21602                       # Cumulative time (in ticks) in various power states (Tick)
system.mem_ctrls2.avgPriority_ruby.dir_cntrl2::samples        25.00                       # Average QoS priority value for accepted requests (Count)
system.mem_ctrls2.priorityMinLatency     0.000000019000                       # per QoS priority minimum request to response latency (Second)
system.mem_ctrls2.priorityMaxLatency     0.000000033000                       # per QoS priority maximum request to response latency (Second)
system.mem_ctrls2.numReadWriteTurnArounds            0                       # Number of turnarounds from READ to WRITE (Count)
system.mem_ctrls2.numWriteReadTurnArounds            0                       # Number of turnarounds from WRITE to READ (Count)
system.mem_ctrls2.numStayReadState                 54                       # Number of times bus staying in READ state (Count)
system.mem_ctrls2.numStayWriteState                 0                       # Number of times bus staying in WRITE state (Count)
system.mem_ctrls2.readReqs                         25                       # Number of read requests accepted (Count)
system.mem_ctrls2.writeReqs                         0                       # Number of write requests accepted (Count)
system.mem_ctrls2.readBursts                       25                       # Number of controller read bursts, including those serviced by the write queue (Count)
system.mem_ctrls2.writeBursts                       0                       # Number of controller write bursts, including those merged in the write queue (Count)
system.mem_ctrls2.servicedByWrQ                     0                       # Number of controller read bursts serviced by the write queue (Count)
system.mem_ctrls2.mergedWrBursts                    0                       # Number of controller write bursts merged with an existing one (Count)
system.mem_ctrls2.neitherReadNorWriteReqs            0                       # Number of requests that are neither read nor write (Count)
system.mem_ctrls2.avgRdQLen                      0.98                       # Average read queue length when enqueuing ((Count/Tick))
system.mem_ctrls2.avgWrQLen                      0.00                       # Average write queue length when enqueuing ((Count/Tick))
system.mem_ctrls2.numRdRetry                        0                       # Number of times read queue was full causing retry (Count)
system.mem_ctrls2.numWrRetry                        0                       # Number of times write queue was full causing retry (Count)
system.mem_ctrls2.readPktSize::0                    0                       # Read request sizes (log2) (Count)
system.mem_ctrls2.readPktSize::1                    0                       # Read request sizes (log2) (Count)
system.mem_ctrls2.readPktSize::2                    0                       # Read request sizes (log2) (Count)
system.mem_ctrls2.readPktSize::3                    0                       # Read request sizes (log2) (Count)
system.mem_ctrls2.readPktSize::4                    0                       # Read request sizes (log2) (Count)
system.mem_ctrls2.readPktSize::5                    0                       # Read request sizes (log2) (Count)
system.mem_ctrls2.readPktSize::6                   25                       # Read request sizes (log2) (Count)
system.mem_ctrls2.writePktSize::0                   0                       # Write request sizes (log2) (Count)
system.mem_ctrls2.writePktSize::1                   0                       # Write request sizes (log2) (Count)
system.mem_ctrls2.writePktSize::2                   0                       # Write request sizes (log2) (Count)
system.mem_ctrls2.writePktSize::3                   0                       # Write request sizes (log2) (Count)
system.mem_ctrls2.writePktSize::4                   0                       # Write request sizes (log2) (Count)
system.mem_ctrls2.writePktSize::5                   0                       # Write request sizes (log2) (Count)
system.mem_ctrls2.writePktSize::6                   0                       # Write request sizes (log2) (Count)
system.mem_ctrls2.rdQLenPdf::0                     25                       # What read queue length does an incoming req see (Count)
system.mem_ctrls2.rdQLenPdf::1                      0                       # What read queue length does an incoming req see (Count)
system.mem_ctrls2.rdQLenPdf::2                      0                       # What read queue length does an incoming req see (Count)
system.mem_ctrls2.rdQLenPdf::3                      0                       # What read queue length does an incoming req see (Count)
system.mem_ctrls2.rdQLenPdf::4                      0                       # What read queue length does an incoming req see (Count)
system.mem_ctrls2.rdQLenPdf::5                      0                       # What read queue length does an incoming req see (Count)
system.mem_ctrls2.rdQLenPdf::6                      0                       # What read queue length does an incoming req see (Count)
system.mem_ctrls2.rdQLenPdf::7                      0                       # What read queue length does an incoming req see (Count)
system.mem_ctrls2.rdQLenPdf::8                      0                       # What read queue length does an incoming req see (Count)
system.mem_ctrls2.rdQLenPdf::9                      0                       # What read queue length does an incoming req see (Count)
system.mem_ctrls2.rdQLenPdf::10                     0                       # What read queue length does an incoming req see (Count)
system.mem_ctrls2.rdQLenPdf::11                     0                       # What read queue length does an incoming req see (Count)
system.mem_ctrls2.rdQLenPdf::12                     0                       # What read queue length does an incoming req see (Count)
system.mem_ctrls2.rdQLenPdf::13                     0                       # What read queue length does an incoming req see (Count)
system.mem_ctrls2.rdQLenPdf::14                     0                       # What read queue length does an incoming req see (Count)
system.mem_ctrls2.rdQLenPdf::15                     0                       # What read queue length does an incoming req see (Count)
system.mem_ctrls2.rdQLenPdf::16                     0                       # What read queue length does an incoming req see (Count)
system.mem_ctrls2.rdQLenPdf::17                     0                       # What read queue length does an incoming req see (Count)
system.mem_ctrls2.rdQLenPdf::18                     0                       # What read queue length does an incoming req see (Count)
system.mem_ctrls2.rdQLenPdf::19                     0                       # What read queue length does an incoming req see (Count)
system.mem_ctrls2.rdQLenPdf::20                     0                       # What read queue length does an incoming req see (Count)
system.mem_ctrls2.rdQLenPdf::21                     0                       # What read queue length does an incoming req see (Count)
system.mem_ctrls2.rdQLenPdf::22                     0                       # What read queue length does an incoming req see (Count)
system.mem_ctrls2.rdQLenPdf::23                     0                       # What read queue length does an incoming req see (Count)
system.mem_ctrls2.rdQLenPdf::24                     0                       # What read queue length does an incoming req see (Count)
system.mem_ctrls2.rdQLenPdf::25                     0                       # What read queue length does an incoming req see (Count)
system.mem_ctrls2.rdQLenPdf::26                     0                       # What read queue length does an incoming req see (Count)
system.mem_ctrls2.rdQLenPdf::27                     0                       # What read queue length does an incoming req see (Count)
system.mem_ctrls2.rdQLenPdf::28                     0                       # What read queue length does an incoming req see (Count)
system.mem_ctrls2.rdQLenPdf::29                     0                       # What read queue length does an incoming req see (Count)
system.mem_ctrls2.rdQLenPdf::30                     0                       # What read queue length does an incoming req see (Count)
system.mem_ctrls2.rdQLenPdf::31                     0                       # What read queue length does an incoming req see (Count)
system.mem_ctrls2.wrQLenPdf::0                      0                       # What write queue length does an incoming req see (Count)
system.mem_ctrls2.wrQLenPdf::1                      0                       # What write queue length does an incoming req see (Count)
system.mem_ctrls2.wrQLenPdf::2                      0                       # What write queue length does an incoming req see (Count)
system.mem_ctrls2.wrQLenPdf::3                      0                       # What write queue length does an incoming req see (Count)
system.mem_ctrls2.wrQLenPdf::4                      0                       # What write queue length does an incoming req see (Count)
system.mem_ctrls2.wrQLenPdf::5                      0                       # What write queue length does an incoming req see (Count)
system.mem_ctrls2.wrQLenPdf::6                      0                       # What write queue length does an incoming req see (Count)
system.mem_ctrls2.wrQLenPdf::7                      0                       # What write queue length does an incoming req see (Count)
system.mem_ctrls2.wrQLenPdf::8                      0                       # What write queue length does an incoming req see (Count)
system.mem_ctrls2.wrQLenPdf::9                      0                       # What write queue length does an incoming req see (Count)
system.mem_ctrls2.wrQLenPdf::10                     0                       # What write queue length does an incoming req see (Count)
system.mem_ctrls2.wrQLenPdf::11                     0                       # What write queue length does an incoming req see (Count)
system.mem_ctrls2.wrQLenPdf::12                     0                       # What write queue length does an incoming req see (Count)
system.mem_ctrls2.wrQLenPdf::13                     0                       # What write queue length does an incoming req see (Count)
system.mem_ctrls2.wrQLenPdf::14                     0                       # What write queue length does an incoming req see (Count)
system.mem_ctrls2.wrQLenPdf::15                     0                       # What write queue length does an incoming req see (Count)
system.mem_ctrls2.wrQLenPdf::16                     0                       # What write queue length does an incoming req see (Count)
system.mem_ctrls2.wrQLenPdf::17                     0                       # What write queue length does an incoming req see (Count)
system.mem_ctrls2.wrQLenPdf::18                     0                       # What write queue length does an incoming req see (Count)
system.mem_ctrls2.wrQLenPdf::19                     0                       # What write queue length does an incoming req see (Count)
system.mem_ctrls2.wrQLenPdf::20                     0                       # What write queue length does an incoming req see (Count)
system.mem_ctrls2.wrQLenPdf::21                     0                       # What write queue length does an incoming req see (Count)
system.mem_ctrls2.wrQLenPdf::22                     0                       # What write queue length does an incoming req see (Count)
system.mem_ctrls2.wrQLenPdf::23                     0                       # What write queue length does an incoming req see (Count)
system.mem_ctrls2.wrQLenPdf::24                     0                       # What write queue length does an incoming req see (Count)
system.mem_ctrls2.wrQLenPdf::25                     0                       # What write queue length does an incoming req see (Count)
system.mem_ctrls2.wrQLenPdf::26                     0                       # What write queue length does an incoming req see (Count)
system.mem_ctrls2.wrQLenPdf::27                     0                       # What write queue length does an incoming req see (Count)
system.mem_ctrls2.wrQLenPdf::28                     0                       # What write queue length does an incoming req see (Count)
system.mem_ctrls2.wrQLenPdf::29                     0                       # What write queue length does an incoming req see (Count)
system.mem_ctrls2.wrQLenPdf::30                     0                       # What write queue length does an incoming req see (Count)
system.mem_ctrls2.wrQLenPdf::31                     0                       # What write queue length does an incoming req see (Count)
system.mem_ctrls2.wrQLenPdf::32                     0                       # What write queue length does an incoming req see (Count)
system.mem_ctrls2.wrQLenPdf::33                     0                       # What write queue length does an incoming req see (Count)
system.mem_ctrls2.wrQLenPdf::34                     0                       # What write queue length does an incoming req see (Count)
system.mem_ctrls2.wrQLenPdf::35                     0                       # What write queue length does an incoming req see (Count)
system.mem_ctrls2.wrQLenPdf::36                     0                       # What write queue length does an incoming req see (Count)
system.mem_ctrls2.wrQLenPdf::37                     0                       # What write queue length does an incoming req see (Count)
system.mem_ctrls2.wrQLenPdf::38                     0                       # What write queue length does an incoming req see (Count)
system.mem_ctrls2.wrQLenPdf::39                     0                       # What write queue length does an incoming req see (Count)
system.mem_ctrls2.wrQLenPdf::40                     0                       # What write queue length does an incoming req see (Count)
system.mem_ctrls2.wrQLenPdf::41                     0                       # What write queue length does an incoming req see (Count)
system.mem_ctrls2.wrQLenPdf::42                     0                       # What write queue length does an incoming req see (Count)
system.mem_ctrls2.wrQLenPdf::43                     0                       # What write queue length does an incoming req see (Count)
system.mem_ctrls2.wrQLenPdf::44                     0                       # What write queue length does an incoming req see (Count)
system.mem_ctrls2.wrQLenPdf::45                     0                       # What write queue length does an incoming req see (Count)
system.mem_ctrls2.wrQLenPdf::46                     0                       # What write queue length does an incoming req see (Count)
system.mem_ctrls2.wrQLenPdf::47                     0                       # What write queue length does an incoming req see (Count)
system.mem_ctrls2.wrQLenPdf::48                     0                       # What write queue length does an incoming req see (Count)
system.mem_ctrls2.wrQLenPdf::49                     0                       # What write queue length does an incoming req see (Count)
system.mem_ctrls2.wrQLenPdf::50                     0                       # What write queue length does an incoming req see (Count)
[...]
system.ruby.network.ctrl_traffic_distribution.n7.n1            0                       (Unspecified)
system.ruby.network.ctrl_traffic_distribution.n7.n2            0                       (Unspecified)
system.ruby.network.ctrl_traffic_distribution.n7.n3            0                       (Unspecified)
system.ruby.network.ctrl_traffic_distribution.n7.n4            0                       (Unspecified)
system.ruby.network.ctrl_traffic_distribution.n7.n5            0                       (Unspecified)
system.ruby.network.ctrl_traffic_distribution.n7.n6            0                       (Unspecified)
system.ruby.network.ctrl_traffic_distribution.n7.n7            0                       (Unspecified)
system.ruby.network.ctrl_traffic_distribution.n7.n8            0                       (Unspecified)
system.ruby.network.ctrl_traffic_distribution.n7.n9            0                       (Unspecified)
system.ruby.network.ctrl_traffic_distribution.n8.n0            0                       (Unspecified)
system.ruby.network.ctrl_traffic_distribution.n8.n1            0                       (Unspecified)
system.ruby.network.ctrl_traffic_distribution.n8.n2            0                       (Unspecified)
system.ruby.network.ctrl_traffic_distribution.n8.n3            0                       (Unspecified)
system.ruby.network.ctrl_traffic_distribution.n8.n4            0                       (Unspecified)
system.ruby.network.ctrl_traffic_distribution.n8.n5            0                       (Unspecified)
system.ruby.network.ctrl_traffic_distribution.n8.n6            0                       (Unspecified)
system.ruby.network.ctrl_traffic_distribution.n8.n7            0                       (Unspecified)
system.ruby.network.ctrl_traffic_distribution.n8.n8            0                       (Unspecified)
system.ruby.network.ctrl_traffic_distribution.n8.n9            0                       (Unspecified)
system.ruby.network.ctrl_traffic_distribution.n9.n0            0                       (Unspecified)
system.ruby.network.ctrl_traffic_distribution.n9.n1            0                       (Unspecified)
system.ruby.network.ctrl_traffic_distribution.n9.n2            0                       (Unspecified)
system.ruby.network.ctrl_traffic_distribution.n9.n3            0                       (Unspecified)
system.ruby.network.ctrl_traffic_distribution.n9.n4            0                       (Unspecified)
system.ruby.network.ctrl_traffic_distribution.n9.n5            0                       (Unspecified)
system.ruby.network.ctrl_traffic_distribution.n9.n6            0                       (Unspecified)
system.ruby.network.ctrl_traffic_distribution.n9.n7            0                       (Unspecified)
system.ruby.network.ctrl_traffic_distribution.n9.n8            0                       (Unspecified)
system.ruby.network.ctrl_traffic_distribution.n9.n9            0                       (Unspecified)
system.ruby.network.data_traffic_distribution.n0.n0            0                       (Unspecified)
system.ruby.network.data_traffic_distribution.n0.n1          100                       (Unspecified)
system.ruby.network.data_traffic_distribution.n0.n2            0                       (Unspecified)
system.ruby.network.data_traffic_distribution.n0.n3            0                       (Unspecified)
system.ruby.network.data_traffic_distribution.n0.n4            0                       (Unspecified)
system.ruby.network.data_traffic_distribution.n0.n5            0                       (Unspecified)
system.ruby.network.data_traffic_distribution.n0.n6            0                       (Unspecified)
system.ruby.network.data_traffic_distribution.n0.n7            0                       (Unspecified)
system.ruby.network.data_traffic_distribution.n0.n8            0                       (Unspecified)
system.ruby.network.data_traffic_distribution.n0.n9            0                       (Unspecified)
system.ruby.network.data_traffic_distribution.n1.n0            0                       (Unspecified)
system.ruby.network.data_traffic_distribution.n1.n1            0                       (Unspecified)
system.ruby.network.data_traffic_distribution.n1.n2          100                       (Unspecified)
system.ruby.network.data_traffic_distribution.n1.n3            1                       (Unspecified)
system.ruby.network.data_traffic_distribution.n1.n4            1                       (Unspecified)
system.ruby.network.data_traffic_distribution.n1.n5            0                       (Unspecified)
system.ruby.network.data_traffic_distribution.n1.n6            0                       (Unspecified)
system.ruby.network.data_traffic_distribution.n1.n7            0                       (Unspecified)
system.ruby.network.data_traffic_distribution.n1.n8            0                       (Unspecified)
system.ruby.network.data_traffic_distribution.n1.n9            0                       (Unspecified)
system.ruby.network.data_traffic_distribution.n2.n0            0                       (Unspecified)
system.ruby.network.data_traffic_distribution.n2.n1            0                       (Unspecified)
system.ruby.network.data_traffic_distribution.n2.n2            0                       (Unspecified)
system.ruby.network.data_traffic_distribution.n2.n3          100                       (Unspecified)
system.ruby.network.data_traffic_distribution.n2.n4            1                       (Unspecified)
system.ruby.network.data_traffic_distribution.n2.n5            0                       (Unspecified)
system.ruby.network.data_traffic_distribution.n2.n6            0                       (Unspecified)
system.ruby.network.data_traffic_distribution.n2.n7            0                       (Unspecified)
system.ruby.network.data_traffic_distribution.n2.n8            0                       (Unspecified)
system.ruby.network.data_traffic_distribution.n2.n9            0                       (Unspecified)
system.ruby.network.data_traffic_distribution.n3.n0            0                       (Unspecified)
system.ruby.network.data_traffic_distribution.n3.n1            0                       (Unspecified)
system.ruby.network.data_traffic_distribution.n3.n2            0                       (Unspecified)
system.ruby.network.data_traffic_distribution.n3.n3            0                       (Unspecified)
system.ruby.network.data_traffic_distribution.n3.n4            0                       (Unspecified)
system.ruby.network.data_traffic_distribution.n3.n5            0                       (Unspecified)
system.ruby.network.data_traffic_distribution.n3.n6            0                       (Unspecified)
system.ruby.network.data_traffic_distribution.n3.n7            0                       (Unspecified)
system.ruby.network.data_traffic_distribution.n3.n8            0                       (Unspecified)
system.ruby.network.data_traffic_distribution.n3.n9            0                       (Unspecified)
system.ruby.network.data_traffic_distribution.n4.n0          100                       (Unspecified)
system.ruby.network.data_traffic_distribution.n4.n1            0                       (Unspecified)
system.ruby.network.data_traffic_distribution.n4.n2            0                       (Unspecified)
system.ruby.network.data_traffic_distribution.n4.n3            1                       (Unspecified)
system.ruby.network.data_traffic_distribution.n4.n4            0                       (Unspecified)
system.ruby.network.data_traffic_distribution.n4.n5            0                       (Unspecified)
system.ruby.network.data_traffic_distribution.n4.n6            0                       (Unspecified)
system.ruby.network.data_traffic_distribution.n4.n7            0                       (Unspecified)
system.ruby.network.data_traffic_distribution.n4.n8            0                       (Unspecified)
system.ruby.network.data_traffic_distribution.n4.n9            0                       (Unspecified)
system.ruby.network.data_traffic_distribution.n5.n0            0                       (Unspecified)
system.ruby.network.data_traffic_distribution.n5.n1            0                       (Unspecified)
system.ruby.network.data_traffic_distribution.n5.n2            0                       (Unspecified)
system.ruby.network.data_traffic_distribution.n5.n3            0                       (Unspecified)
system.ruby.network.data_traffic_distribution.n5.n4           25                       (Unspecified)
system.ruby.network.data_traffic_distribution.n5.n5            0                       (Unspecified)
system.ruby.network.data_traffic_distribution.n5.n6            0                       (Unspecified)
system.ruby.network.data_traffic_distribution.n5.n7            0                       (Unspecified)
system.ruby.network.data_traffic_distribution.n5.n8            0                       (Unspecified)
system.ruby.network.data_traffic_distribution.n5.n9            0                       (Unspecified)
system.ruby.network.data_traffic_distribution.n6.n0            0                       (Unspecified)
system.ruby.network.data_traffic_distribution.n6.n1            0                       (Unspecified)
system.ruby.network.data_traffic_distribution.n6.n2            0                       (Unspecified)
system.ruby.network.data_traffic_distribution.n6.n3            0                       (Unspecified)
system.ruby.network.data_traffic_distribution.n6.n4           25                       (Unspecified)
system.ruby.network.data_traffic_distribution.n6.n5            0                       (Unspecified)
system.ruby.network.data_traffic_distribution.n6.n6            0                       (Unspecified)
system.ruby.network.data_traffic_distribution.n6.n7            0                       (Unspecified)
system.ruby.network.data_traffic_distribution.n6.n8            0                       (Unspecified)
system.ruby.network.data_traffic_distribution.n6.n9            0                       (Unspecified)
system.ruby.network.data_traffic_distribution.n7.n0            0                       (Unspecified)
system.ruby.network.data_traffic_distribution.n7.n1            0                       (Unspecified)
system.ruby.network.data_traffic_distribution.n7.n2            0                       (Unspecified)
system.ruby.network.data_traffic_distribution.n7.n3            0                       (Unspecified)
system.ruby.network.data_traffic_distribution.n7.n4           25                       (Unspecified)
system.ruby.network.data_traffic_distribution.n7.n5            0                       (Unspecified)
system.ruby.network.data_traffic_distribution.n7.n6            0                       (Unspecified)
system.ruby.network.data_traffic_distribution.n7.n7            0                       (Unspecified)
system.ruby.network.data_traffic_distribution.n7.n8            0                       (Unspecified)
system.ruby.network.data_traffic_distribution.n7.n9            0                       (Unspecified)
system.ruby.network.data_traffic_distribution.n8.n0            0                       (Unspecified)
system.ruby.network.data_traffic_distribution.n8.n1            0                       (Unspecified)
system.ruby.network.data_traffic_distribution.n8.n2            0                       (Unspecified)
system.ruby.network.data_traffic_distribution.n8.n3            0                       (Unspecified)
system.ruby.network.data_traffic_distribution.n8.n4           25                       (Unspecified)
system.ruby.network.data_traffic_distribution.n8.n5            0                       (Unspecified)
system.ruby.network.data_traffic_distribution.n8.n6            0                       (Unspecified)
system.ruby.network.data_traffic_distribution.n8.n7            0                       (Unspecified)
system.ruby.network.data_traffic_distribution.n8.n8            0                       (Unspecified)
system.ruby.network.data_traffic_distribution.n8.n9            0                       (Unspecified)
system.ruby.network.data_traffic_distribution.n9.n0            0                       (Unspecified)
system.ruby.network.data_traffic_distribution.n9.n1            0                       (Unspecified)
system.ruby.network.data_traffic_distribution.n9.n2            0                       (Unspecified)
system.ruby.network.data_traffic_distribution.n9.n3            0                       (Unspecified)
system.ruby.network.data_traffic_distribution.n9.n4            0                       (Unspecified)
system.ruby.network.data_traffic_distribution.n9.n5            0                       (Unspecified)
system.ruby.network.data_traffic_distribution.n9.n6            0                       (Unspecified)
system.ruby.network.data_traffic_distribution.n9.n7            0                       (Unspecified)
system.ruby.network.data_traffic_distribution.n9.n8            0                       (Unspecified)
system.ruby.network.data_traffic_distribution.n9.n9            0                       (Unspecified)
system.ruby.network.ext_in_link_utilization         3712                       (Unspecified)
system.ruby.network.ext_out_link_utilization         3712                       (Unspecified)
system.ruby.network.flit_network_latency |        3500                       |       23147                       |        4901                       (Unspecified)
system.ruby.network.flit_queueing_latency |        1000                       |        4034                       |         700                       (Unspecified)
system.ruby.network.flits_injected       |         500     13.47%     13.47% |        2512     67.65%     81.12% |         701     18.88%    100.00% (Unspecified)
system.ruby.network.flits_injected::total         3713                       (Unspecified)
system.ruby.network.flits_received       |         500     13.47%     13.47% |        2512     67.67%     81.14% |         700     18.86%    100.00% (Unspecified)
system.ruby.network.flits_received::total         3712                       (Unspecified)
system.ruby.network.int_link_utilization         7424                       (Unspecified)
system.ruby.network.packet_network_latency |        3500                       |        6051                       |        4901                       (Unspecified)
system.ruby.network.packet_queueing_latency |        1000                       |         810                       |         700                       (Unspecified)
system.ruby.network.packets_injected     |         500     29.33%     29.33% |         504     29.56%     58.89% |         701     41.11%    100.00% (Unspecified)
system.ruby.network.packets_injected::total         1705                       (Unspecified)
system.ruby.network.packets_received     |         500     29.34%     29.34% |         504     29.58%     58.92% |         700     41.08%    100.00% (Unspecified)
system.ruby.network.packets_received::total         1704                       (Unspecified)
system.ruby.network.routers0.buffer_reads         1300                       (Unspecified)
system.ruby.network.routers0.buffer_writes         1300                       (Unspecified)
system.ruby.network.routers0.crossbar_activity         1300                       (Unspecified)
system.ruby.network.routers0.sw_input_arbiter_activity         1300                       (Unspecified)
system.ruby.network.routers0.sw_output_arbiter_activity         1300                       (Unspecified)
system.ruby.network.routers1.buffer_reads         1307                       (Unspecified)
system.ruby.network.routers1.buffer_writes         1307                       (Unspecified)
system.ruby.network.routers1.crossbar_activity         1307                       (Unspecified)
system.ruby.network.routers1.sw_input_arbiter_activity         1307                       (Unspecified)
system.ruby.network.routers1.sw_output_arbiter_activity         1307                       (Unspecified)
system.ruby.network.routers2.buffer_reads         1301                       (Unspecified)
system.ruby.network.routers2.buffer_writes         1301                       (Unspecified)
system.ruby.network.routers2.crossbar_activity         1301                       (Unspecified)
system.ruby.network.routers2.sw_input_arbiter_activity         1301                       (Unspecified)
system.ruby.network.routers2.sw_output_arbiter_activity         1301                       (Unspecified)
system.ruby.network.routers3.buffer_reads          701                       (Unspecified)
system.ruby.network.routers3.buffer_writes          701                       (Unspecified)
system.ruby.network.routers3.crossbar_activity          701                       (Unspecified)
system.ruby.network.routers3.sw_input_arbiter_activity          701                       (Unspecified)
system.ruby.network.routers3.sw_output_arbiter_activity          701                       (Unspecified)
system.ruby.network.routers4.buffer_reads         2215                       (Unspecified)
system.ruby.network.routers4.buffer_writes         2215                       (Unspecified)
system.ruby.network.routers4.crossbar_activity         2215                       (Unspecified)
system.ruby.network.routers4.sw_input_arbiter_activity         2215                       (Unspecified)
system.ruby.network.routers4.sw_output_arbiter_activity         2215                       (Unspecified)
system.ruby.network.routers5.buffer_reads          150                       (Unspecified)
system.ruby.network.routers5.buffer_writes          150                       (Unspecified)
system.ruby.network.routers5.crossbar_activity          150                       (Unspecified)
system.ruby.network.routers5.sw_input_arbiter_activity          150                       (Unspecified)
system.ruby.network.routers5.sw_output_arbiter_activity          150                       (Unspecified)
system.ruby.network.routers6.buffer_reads          150                       (Unspecified)
system.ruby.network.routers6.buffer_writes          150                       (Unspecified)
system.ruby.network.routers6.crossbar_activity          150                       (Unspecified)
system.ruby.network.routers6.sw_input_arbiter_activity          150                       (Unspecified)
system.ruby.network.routers6.sw_output_arbiter_activity          150                       (Unspecified)
system.ruby.network.routers7.buffer_reads          150                       (Unspecified)
system.ruby.network.routers7.buffer_writes          150                       (Unspecified)
system.ruby.network.routers7.crossbar_activity          150                       (Unspecified)
system.ruby.network.routers7.sw_input_arbiter_activity          150                       (Unspecified)
system.ruby.network.routers7.sw_output_arbiter_activity          150                       (Unspecified)
system.ruby.network.routers8.buffer_reads          150                       (Unspecified)
system.ruby.network.routers8.buffer_writes          150                       (Unspecified)
system.ruby.network.routers8.crossbar_activity          150                       (Unspecified)
system.ruby.network.routers8.sw_input_arbiter_activity          150                       (Unspecified)
system.ruby.network.routers8.sw_output_arbiter_activity          150                       (Unspecified)
system.ruby.network.routers9.buffer_reads         3712                       (Unspecified)
system.ruby.network.routers9.buffer_writes         3712                       (Unspecified)
system.ruby.network.routers9.crossbar_activity         3712                       (Unspecified)
system.ruby.network.routers9.sw_input_arbiter_activity         3712                       (Unspecified)
system.ruby.network.routers9.sw_output_arbiter_activity         3712                       (Unspecified)

---------- End Simulation Statistics   ----------
