
---------- Begin Simulation Statistics ----------
simSeconds                                   0.011138                       # Number of seconds simulated (Second)
simTicks                                  11137650000                       # Number of ticks simulated (Tick)
finalTick                                 11137650000                       # Number of ticks from beginning of simulation (restored from checkpoints and never reset) (Tick)
simFreq                                  1000000000000                       # The number of ticks per simulated second ((Tick/Second))
hostSeconds                                     14.39                       # Real time elapsed on the host (Second)
hostTickRate                                774240007                       # The number of ticks simulated per host second (ticks/s) ((Tick/Second))
hostMemory                                     824408                       # Number of bytes of host memory used (Byte)
simInsts                                      5771637                       # Number of instructions simulated (Count)
simOps                                       10082887                       # Number of ops (including micro ops) simulated (Count)
hostInstRate                                   401216                       # Simulator instruction rate (inst/s) ((Count/Second))
hostOpRate                                     700912                       # Simulator op (including micro ops) rate (op/s) ((Count/Second))
system.clk_domain.clock                          1000                       # Clock period in ticks (Tick)
system.cpu0.numCycles                        22275300                       # Number of cpu cycles simulated (Cycle)
system.cpu0.cpi                              3.859326                       # CPI: cycles per instruction (core level) ((Cycle/Count))
system.cpu0.ipc                              0.259113                       # IPC: instructions per cycle (core level) ((Count/Cycle))
system.cpu0.numWorkItemsStarted                     0                       # Number of work items this cpu started (Count)
system.cpu0.numWorkItemsCompleted                   0                       # Number of work items this cpu completed (Count)
system.cpu0.commitStats0.numInsts             5771811                       # Number of instructions committed (thread level) (Count)
system.cpu0.commitStats0.numOps              10083229                       # Number of ops (including micro ops) committed (thread level) (Count)
system.cpu0.commitStats0.numInstsNotNOP             0                       # Number of instructions committed excluding NOPs or prefetches (Count)
system.cpu0.commitStats0.numOpsNotNOP               0                       # Number of Ops (including micro ops) Simulated (Count)
system.cpu0.commitStats0.cpi                 3.859326                       # CPI: cycles per instruction (thread level) ((Cycle/Count))
system.cpu0.commitStats0.ipc                 0.259113                       # IPC: instructions per cycle (thread level) ((Count/Cycle))
system.cpu0.commitStats0.numMemRefs                 0                       # Number of memory references committed (Count)
system.cpu0.commitStats0.numFpInsts           3097135                       # Number of float instructions (Count)
system.cpu0.commitStats0.numIntInsts          7837744                       # Number of integer instructions (Count)
system.cpu0.commitStats0.numLoadInsts         1702422                       # Number of load instructions (Count)
system.cpu0.commitStats0.numStoreInsts         634320                       # Number of store instructions (Count)
system.cpu0.commitStats0.numVecInsts                0                       # Number of vector instructions (Count)
system.cpu0.commitStats0.committedInstType::No_OpClass        33474      0.33%      0.33% # Class of committed instruction. (Count)
system.cpu0.commitStats0.committedInstType::IntAlu      5717735     56.71%     57.04% # Class of committed instruction. (Count)
system.cpu0.commitStats0.committedInstType::IntMult         4124      0.04%     57.08% # Class of committed instruction. (Count)
system.cpu0.commitStats0.committedInstType::IntDiv        34738      0.34%     57.42% # Class of committed instruction. (Count)
system.cpu0.commitStats0.committedInstType::FloatAdd       778219      7.72%     65.14% # Class of committed instruction. (Count)
system.cpu0.commitStats0.committedInstType::FloatCmp            0      0.00%     65.14% # Class of committed instruction. (Count)
system.cpu0.commitStats0.committedInstType::FloatCvt          160      0.00%     65.14% # Class of committed instruction. (Count)
system.cpu0.commitStats0.committedInstType::FloatMult            0      0.00%     65.14% # Class of committed instruction. (Count)
system.cpu0.commitStats0.committedInstType::FloatMultAcc            0      0.00%     65.14% # Class of committed instruction. (Count)
system.cpu0.commitStats0.committedInstType::FloatDiv            0      0.00%     65.14% # Class of committed instruction. (Count)
system.cpu0.commitStats0.committedInstType::FloatMisc            0      0.00%     65.14% # Class of committed instruction. (Count)
system.cpu0.commitStats0.committedInstType::FloatSqrt            0      0.00%     65.14% # Class of committed instruction. (Count)
system.cpu0.commitStats0.committedInstType::SimdAdd         5394      0.05%     65.20% # Class of committed instruction. (Count)
system.cpu0.commitStats0.committedInstType::SimdAddAcc            0      0.00%     65.20% # Class of committed instruction. (Count)
system.cpu0.commitStats0.committedInstType::SimdAlu       309815      3.07%     68.27% # Class of committed instruction. (Count)
system.cpu0.commitStats0.committedInstType::SimdCmp            0      0.00%     68.27% # Class of committed instruction. (Count)
system.cpu0.commitStats0.committedInstType::SimdCvt        11058      0.11%     68.38% # Class of committed instruction. (Count)
system.cpu0.commitStats0.committedInstType::SimdMisc        64564      0.64%     69.02% # Class of committed instruction. (Count)
system.cpu0.commitStats0.committedInstType::SimdMult            0      0.00%     69.02% # Class of committed instruction. (Count)
system.cpu0.commitStats0.committedInstType::SimdMultAcc            0      0.00%     69.02% # Class of committed instruction. (Count)
system.cpu0.commitStats0.committedInstType::SimdMatMultAcc            0      0.00%     69.02% # Class of committed instruction. (Count)
system.cpu0.commitStats0.committedInstType::SimdShift          694      0.01%     69.03% # Class of committed instruction. (Count)
system.cpu0.commitStats0.committedInstType::SimdShiftAcc            0      0.00%     69.03% # Class of committed instruction. (Count)
system.cpu0.commitStats0.committedInstType::SimdDiv            0      0.00%     69.03% # Class of committed instruction. (Count)
system.cpu0.commitStats0.committedInstType::SimdSqrt            0      0.00%     69.03% # Class of committed instruction. (Count)
system.cpu0.commitStats0.committedInstType::SimdFloatAdd       349405      3.47%     72.49% # Class of committed instruction. (Count)
system.cpu0.commitStats0.committedInstType::SimdFloatAlu            0      0.00%     72.49% # Class of committed instruction. (Count)
system.cpu0.commitStats0.committedInstType::SimdFloatCmp            0      0.00%     72.49% # Class of committed instruction. (Count)
system.cpu0.commitStats0.committedInstType::SimdFloatCvt        95359      0.95%     73.44% # Class of committed instruction. (Count)
system.cpu0.commitStats0.committedInstType::SimdFloatDiv        22528      0.22%     73.66% # Class of committed instruction. (Count)
system.cpu0.commitStats0.committedInstType::SimdFloatMisc            0      0.00%     73.66% # Class of committed instruction. (Count)
system.cpu0.commitStats0.committedInstType::SimdFloatMult       319220      3.17%     76.83% # Class of committed instruction. (Count)
system.cpu0.commitStats0.committedInstType::SimdFloatMultAcc            0      0.00%     76.83% # Class of committed instruction. (Count)
system.cpu0.commitStats0.committedInstType::SimdFloatMatMultAcc            0      0.00%     76.83% # Class of committed instruction. (Count)
system.cpu0.commitStats0.committedInstType::SimdFloatSqrt            0      0.00%     76.83% # Class of committed instruction. (Count)
system.cpu0.commitStats0.committedInstType::SimdReduceAdd            0      0.00%     76.83% # Class of committed instruction. (Count)
system.cpu0.commitStats0.committedInstType::SimdReduceAlu            0      0.00%     76.83% # Class of committed instruction. (Count)
system.cpu0.commitStats0.committedInstType::SimdReduceCmp            0      0.00%     76.83% # Class of committed instruction. (Count)
system.cpu0.commitStats0.committedInstType::SimdFloatReduceAdd            0      0.00%     76.83% # Class of committed instruction. (Count)
system.cpu0.commitStats0.committedInstType::SimdFloatReduceCmp            0      0.00%     76.83% # Class of committed instruction. (Count)
system.cpu0.commitStats0.committedInstType::SimdAes            0      0.00%     76.83% # Class of committed instruction. (Count)
system.cpu0.commitStats0.committedInstType::SimdAesMix            0      0.00%     76.83% # Class of committed instruction. (Count)
system.cpu0.commitStats0.committedInstType::SimdSha1Hash            0      0.00%     76.83% # Class of committed instruction. (Count)
system.cpu0.commitStats0.committedInstType::SimdSha1Hash2            0      0.00%     76.83% # Class of committed instruction. (Count)
system.cpu0.commitStats0.committedInstType::SimdSha256Hash            0      0.00%     76.83% # Class of committed instruction. (Count)
system.cpu0.commitStats0.committedInstType::SimdSha256Hash2            0      0.00%     76.83% # Class of committed instruction. (Count)
system.cpu0.commitStats0.committedInstType::SimdShaSigma2            0      0.00%     76.83% # Class of committed instruction. (Count)
system.cpu0.commitStats0.committedInstType::SimdShaSigma3            0      0.00%     76.83% # Class of committed instruction. (Count)
system.cpu0.commitStats0.committedInstType::SimdPredAlu            0      0.00%     76.83% # Class of committed instruction. (Count)
system.cpu0.commitStats0.committedInstType::Matrix            0      0.00%     76.83% # Class of committed instruction. (Count)
system.cpu0.commitStats0.committedInstType::MatrixMov            0      0.00%     76.83% # Class of committed instruction. (Count)
system.cpu0.commitStats0.committedInstType::MatrixOP            0      0.00%     76.83% # Class of committed instruction. (Count)
system.cpu0.commitStats0.committedInstType::MemRead      1034677     10.26%     87.09% # Class of committed instruction. (Count)
system.cpu0.commitStats0.committedInstType::MemWrite       471071      4.67%     91.76% # Class of committed instruction. (Count)
system.cpu0.commitStats0.committedInstType::FloatMemRead       667745      6.62%     98.38% # Class of committed instruction. (Count)
system.cpu0.commitStats0.committedInstType::FloatMemWrite       163249      1.62%    100.00% # Class of committed instruction. (Count)
system.cpu0.commitStats0.committedInstType::IprAccess            0      0.00%    100.00% # Class of committed instruction. (Count)
system.cpu0.commitStats0.committedInstType::InstPrefetch            0      0.00%    100.00% # Class of committed instruction. (Count)
system.cpu0.commitStats0.committedInstType::VectorUnitStrideLoad            0      0.00%    100.00% # Class of committed instruction. (Count)
system.cpu0.commitStats0.committedInstType::VectorUnitStrideStore            0      0.00%    100.00% # Class of committed instruction. (Count)
system.cpu0.commitStats0.committedInstType::VectorUnitStrideMaskLoad            0      0.00%    100.00% # Class of committed instruction. (Count)
system.cpu0.commitStats0.committedInstType::VectorUnitStrideMaskStore            0      0.00%    100.00% # Class of committed instruction. (Count)
system.cpu0.commitStats0.committedInstType::VectorStridedLoad            0      0.00%    100.00% # Class of committed instruction. (Count)
system.cpu0.commitStats0.committedInstType::VectorStridedStore            0      0.00%    100.00% # Class of committed instruction. (Count)
system.cpu0.commitStats0.committedInstType::VectorIndexedLoad            0      0.00%    100.00% # Class of committed instruction. (Count)
system.cpu0.commitStats0.committedInstType::VectorIndexedStore            0      0.00%    100.00% # Class of committed instruction. (Count)
system.cpu0.commitStats0.committedInstType::VectorUnitStrideFaultOnlyFirstLoad            0      0.00%    100.00% # Class of committed instruction. (Count)
system.cpu0.commitStats0.committedInstType::VectorWholeRegisterLoad            0      0.00%    100.00% # Class of committed instruction. (Count)
system.cpu0.commitStats0.committedInstType::VectorWholeRegisterStore            0      0.00%    100.00% # Class of committed instruction. (Count)
system.cpu0.commitStats0.committedInstType::VectorIntegerArith            0      0.00%    100.00% # Class of committed instruction. (Count)
system.cpu0.commitStats0.committedInstType::VectorFloatArith            0      0.00%    100.00% # Class of committed instruction. (Count)
system.cpu0.commitStats0.committedInstType::VectorFloatConvert            0      0.00%    100.00% # Class of committed instruction. (Count)
system.cpu0.commitStats0.committedInstType::VectorIntegerReduce            0      0.00%    100.00% # Class of committed instruction. (Count)
system.cpu0.commitStats0.committedInstType::VectorFloatReduce            0      0.00%    100.00% # Class of committed instruction. (Count)
system.cpu0.commitStats0.committedInstType::VectorMisc            0      0.00%    100.00% # Class of committed instruction. (Count)
system.cpu0.commitStats0.committedInstType::VectorIntegerExtension            0      0.00%    100.00% # Class of committed instruction. (Count)
system.cpu0.commitStats0.committedInstType::VectorConfig            0      0.00%    100.00% # Class of committed instruction. (Count)
system.cpu0.commitStats0.committedInstType::total     10083229                       # Class of committed instruction. (Count)
system.cpu0.commitStats0.committedControl::IsControl       661098                       # Class of control type instructions committed (Count)
system.cpu0.commitStats0.committedControl::IsDirectControl       599972                       # Class of control type instructions committed (Count)
system.cpu0.commitStats0.committedControl::IsIndirectControl        61077                       # Class of control type instructions committed (Count)
system.cpu0.commitStats0.committedControl::IsCondControl       485705                       # Class of control type instructions committed (Count)
system.cpu0.commitStats0.committedControl::IsUncondControl       175344                       # Class of control type instructions committed (Count)
system.cpu0.commitStats0.committedControl::IsCall        34432                       # Class of control type instructions committed (Count)
system.cpu0.commitStats0.committedControl::IsReturn        34427                       # Class of control type instructions committed (Count)
system.cpu0.exec_context.thread_0.numMatAluAccesses            0                       # Number of matrix alu accesses (Count)
system.cpu0.exec_context.thread_0.numCallsReturns        68859                       # Number of times a function call or return occured (Count)
system.cpu0.exec_context.thread_0.numMatInsts            0                       # Number of matrix instructions (Count)
system.cpu0.exec_context.thread_0.numIdleCycles     0.002000                       # Number of idle cycles (Cycle)
system.cpu0.exec_context.thread_0.numBusyCycles 22275299.998000                       # Number of busy cycles (Cycle)
system.cpu0.exec_context.thread_0.notIdleFraction     1.000000                       # Percentage of non-idle cycles (Ratio)
system.cpu0.exec_context.thread_0.idleFraction     0.000000                       # Percentage of idle cycles (Ratio)
system.cpu0.executeStats0.numInsts                  0                       # Number of executed instructions (Count)
system.cpu0.executeStats0.numNop                    0                       # Number of nop insts executed (Count)
system.cpu0.executeStats0.numBranches               0                       # Number of branches executed (Count)
system.cpu0.executeStats0.numLoadInsts              0                       # Number of load instructions executed (Count)
system.cpu0.executeStats0.numStoreInsts       2336742                       # Number of stores executed (Count)
system.cpu0.executeStats0.instRate                  0                       # Inst execution rate ((Count/Cycle))
system.cpu0.executeStats0.numFpAluAccesses      3097135                       # Number of float alu accesses (Count)
system.cpu0.executeStats0.numFpRegReads       3786883                       # Number of times the floating registers were read (Count)
system.cpu0.executeStats0.numFpRegWrites      2851199                       # Number of times the floating registers were written (Count)
system.cpu0.executeStats0.numIntAluAccesses      7837744                       # Number of integer alu accesses (Count)
system.cpu0.executeStats0.numIntRegReads     10116938                       # Number of times the integer registers were read (Count)
system.cpu0.executeStats0.numIntRegWrites      5530861                       # Number of times the integer registers were written (Count)
system.cpu0.executeStats0.numMemRefs          2336742                       # Number of memory refs (Count)
system.cpu0.executeStats0.numMiscRegReads      3914340                       # Number of times the Misc registers were read (Count)
system.cpu0.executeStats0.numMiscRegWrites           90                       # Number of times the Misc registers were written (Count)
system.cpu0.executeStats0.numVecAluAccesses            0                       # Number of vector alu accesses (Count)
system.cpu0.executeStats0.numDiscardedOps            0                       # Number of ops (including micro ops) which were discarded before commit (Count)
system.cpu0.fetchStats0.numInsts              5771811                       # Number of instructions fetched (thread level) (Count)
system.cpu0.fetchStats0.numOps               10083229                       # Number of ops (including micro ops) fetched (thread level) (Count)
system.cpu0.fetchStats0.fetchRate            0.259113                       # Number of inst fetches per cycle ((Count/Cycle))
system.cpu0.fetchStats0.numBranches            661098                       # Number of branches fetched (Count)
system.cpu0.fetchStats0.branchRate           0.029679                       # Number of branch fetches per cycle (Ratio)
system.cpu0.fetchStats0.numFetchSuspends            0                       # Number of times Execute suspended instruction fetching (Count)
system.cpu0.interrupts.clk_domain.clock          8000                       # Clock period in ticks (Tick)
system.cpu0.mmu.dtb.rdAccesses                1702448                       # TLB accesses on read requests (Count)
system.cpu0.mmu.dtb.wrAccesses                 634328                       # TLB accesses on write requests (Count)
system.cpu0.mmu.dtb.rdMisses                     1334                       # TLB misses on read requests (Count)
system.cpu0.mmu.dtb.wrMisses                      109                       # TLB misses on write requests (Count)
system.cpu0.mmu.dtb.walker.power_state.pwrStateResidencyTicks::UNDEFINED  11137650000                       # Cumulative time (in ticks) in various power states (Tick)
system.cpu0.mmu.itb.rdAccesses                      0                       # TLB accesses on read requests (Count)
system.cpu0.mmu.itb.wrAccesses                7927945                       # TLB accesses on write requests (Count)
system.cpu0.mmu.itb.rdMisses                        0                       # TLB misses on read requests (Count)
system.cpu0.mmu.itb.wrMisses                      299                       # TLB misses on write requests (Count)
system.cpu0.mmu.itb.walker.power_state.pwrStateResidencyTicks::UNDEFINED  11137650000                       # Cumulative time (in ticks) in various power states (Tick)
system.cpu0.power_state.pwrStateResidencyTicks::ON  11137650000                       # Cumulative time (in ticks) in various power states (Tick)
system.cpu0.thread_0.numInsts                       0                       # Number of Instructions committed (Count)
system.cpu0.thread_0.numOps                         0                       # Number of Ops committed (Count)
system.cpu0.thread_0.numMemRefs                     0                       # Number of Memory References (Count)
system.cpu0.workload.numSyscalls                   67                       # Number of system calls (Count)
system.cpu1.numCycles                               0                       # Number of cpu cycles simulated (Cycle)
system.cpu1.cpi                                   nan                       # CPI: cycles per instruction (core level) ((Cycle/Count))
system.cpu1.ipc                                   nan                       # IPC: instructions per cycle (core level) ((Count/Cycle))
system.cpu1.numWorkItemsStarted                     0                       # Number of work items this cpu started (Count)
system.cpu1.numWorkItemsCompleted                   0                       # Number of work items this cpu completed (Count)
system.cpu1.commitStats0.numOps                     0                       # Number of ops (including micro ops) committed (thread level) (Count)
system.cpu1.commitStats0.numInstsNotNOP             0                       # Number of instructions committed excluding NOPs or prefetches (Count)
system.cpu1.commitStats0.numOpsNotNOP               0                       # Number of Ops (including micro ops) Simulated (Count)
system.cpu1.commitStats0.cpi                      nan                       # CPI: cycles per instruction (thread level) ((Cycle/Count))
system.cpu1.commitStats0.ipc                      nan                       # IPC: instructions per cycle (thread level) ((Count/Cycle))
system.cpu1.commitStats0.numMemRefs                 0                       # Number of memory references committed (Count)
system.cpu1.commitStats0.numFpInsts                 0                       # Number of float instructions (Count)
system.cpu1.commitStats0.numIntInsts                0                       # Number of integer instructions (Count)
system.cpu1.commitStats0.numLoadInsts               0                       # Number of load instructions (Count)
system.cpu1.commitStats0.numStoreInsts              0                       # Number of store instructions (Count)
system.cpu1.commitStats0.numVecInsts                0                       # Number of vector instructions (Count)
system.cpu1.commitStats0.committedInstType::No_OpClass            0                       # Class of committed instruction. (Count)
system.cpu1.commitStats0.committedInstType::IntAlu            0                       # Class of committed instruction. (Count)
system.cpu1.commitStats0.committedInstType::IntMult            0                       # Class of committed instruction. (Count)
system.cpu1.commitStats0.committedInstType::IntDiv            0                       # Class of committed instruction. (Count)
system.cpu1.commitStats0.committedInstType::FloatAdd            0                       # Class of committed instruction. (Count)
system.cpu1.commitStats0.committedInstType::FloatCmp            0                       # Class of committed instruction. (Count)
system.cpu1.commitStats0.committedInstType::FloatCvt            0                       # Class of committed instruction. (Count)
system.cpu1.commitStats0.committedInstType::FloatMult            0                       # Class of committed instruction. (Count)
system.cpu1.commitStats0.committedInstType::FloatMultAcc            0                       # Class of committed instruction. (Count)
system.cpu1.commitStats0.committedInstType::FloatDiv            0                       # Class of committed instruction. (Count)
system.cpu1.commitStats0.committedInstType::FloatMisc            0                       # Class of committed instruction. (Count)
system.cpu1.commitStats0.committedInstType::FloatSqrt            0                       # Class of committed instruction. (Count)
system.cpu1.commitStats0.committedInstType::SimdAdd            0                       # Class of committed instruction. (Count)
system.cpu1.commitStats0.committedInstType::SimdAddAcc            0                       # Class of committed instruction. (Count)
system.cpu1.commitStats0.committedInstType::SimdAlu            0                       # Class of committed instruction. (Count)
system.cpu1.commitStats0.committedInstType::SimdCmp            0                       # Class of committed instruction. (Count)
system.cpu1.commitStats0.committedInstType::SimdCvt            0                       # Class of committed instruction. (Count)
system.cpu1.commitStats0.committedInstType::SimdMisc            0                       # Class of committed instruction. (Count)
system.cpu1.commitStats0.committedInstType::SimdMult            0                       # Class of committed instruction. (Count)
system.cpu1.commitStats0.committedInstType::SimdMultAcc            0                       # Class of committed instruction. (Count)
system.cpu1.commitStats0.committedInstType::SimdMatMultAcc            0                       # Class of committed instruction. (Count)
system.cpu1.commitStats0.committedInstType::SimdShift            0                       # Class of committed instruction. (Count)
system.cpu1.commitStats0.committedInstType::SimdShiftAcc            0                       # Class of committed instruction. (Count)
system.cpu1.commitStats0.committedInstType::SimdDiv            0                       # Class of committed instruction. (Count)
system.cpu1.commitStats0.committedInstType::SimdSqrt            0                       # Class of committed instruction. (Count)
system.cpu1.commitStats0.committedInstType::SimdFloatAdd            0                       # Class of committed instruction. (Count)
system.cpu1.commitStats0.committedInstType::SimdFloatAlu            0                       # Class of committed instruction. (Count)
system.cpu1.commitStats0.committedInstType::SimdFloatCmp            0                       # Class of committed instruction. (Count)
system.cpu1.commitStats0.committedInstType::SimdFloatCvt            0                       # Class of committed instruction. (Count)
system.cpu1.commitStats0.committedInstType::SimdFloatDiv            0                       # Class of committed instruction. (Count)
system.cpu1.commitStats0.committedInstType::SimdFloatMisc            0                       # Class of committed instruction. (Count)
system.cpu1.commitStats0.committedInstType::SimdFloatMult            0                       # Class of committed instruction. (Count)
system.cpu1.commitStats0.committedInstType::SimdFloatMultAcc            0                       # Class of committed instruction. (Count)
system.cpu1.commitStats0.committedInstType::SimdFloatMatMultAcc            0                       # Class of committed instruction. (Count)
system.cpu1.commitStats0.committedInstType::SimdFloatSqrt            0                       # Class of committed instruction. (Count)
system.cpu1.commitStats0.committedInstType::SimdReduceAdd            0                       # Class of committed instruction. (Count)
system.cpu1.commitStats0.committedInstType::SimdReduceAlu            0                       # Class of committed instruction. (Count)
system.cpu1.commitStats0.committedInstType::SimdReduceCmp            0                       # Class of committed instruction. (Count)
system.cpu1.commitStats0.committedInstType::SimdFloatReduceAdd            0                       # Class of committed instruction. (Count)
system.cpu1.commitStats0.committedInstType::SimdFloatReduceCmp            0                       # Class of committed instruction. (Count)
system.cpu1.commitStats0.committedInstType::SimdAes            0                       # Class of committed instruction. (Count)
system.cpu1.commitStats0.committedInstType::SimdAesMix            0                       # Class of committed instruction. (Count)
system.cpu1.commitStats0.committedInstType::SimdSha1Hash            0                       # Class of committed instruction. (Count)
system.cpu1.commitStats0.committedInstType::SimdSha1Hash2            0                       # Class of committed instruction. (Count)
system.cpu1.commitStats0.committedInstType::SimdSha256Hash            0                       # Class of committed instruction. (Count)
system.cpu1.commitStats0.committedInstType::SimdSha256Hash2            0                       # Class of committed instruction. (Count)
system.cpu1.commitStats0.committedInstType::SimdShaSigma2            0                       # Class of committed instruction. (Count)
system.cpu1.commitStats0.committedInstType::SimdShaSigma3            0                       # Class of committed instruction. (Count)
system.cpu1.commitStats0.committedInstType::SimdPredAlu            0                       # Class of committed instruction. (Count)
system.cpu1.commitStats0.committedInstType::Matrix            0                       # Class of committed instruction. (Count)
system.cpu1.commitStats0.committedInstType::MatrixMov            0                       # Class of committed instruction. (Count)
system.cpu1.commitStats0.committedInstType::MatrixOP            0                       # Class of committed instruction. (Count)
system.cpu1.commitStats0.committedInstType::MemRead            0                       # Class of committed instruction. (Count)
system.cpu1.commitStats0.committedInstType::MemWrite            0                       # Class of committed instruction. (Count)
system.cpu1.commitStats0.committedInstType::FloatMemRead            0                       # Class of committed instruction. (Count)
system.cpu1.commitStats0.committedInstType::FloatMemWrite            0                       # Class of committed instruction. (Count)
system.cpu1.commitStats0.committedInstType::IprAccess            0                       # Class of committed instruction. (Count)
system.cpu1.commitStats0.committedInstType::InstPrefetch            0                       # Class of committed instruction. (Count)
system.cpu1.commitStats0.committedInstType::VectorUnitStrideLoad            0                       # Class of committed instruction. (Count)
system.cpu1.commitStats0.committedInstType::VectorUnitStrideStore            0                       # Class of committed instruction. (Count)
system.cpu1.commitStats0.committedInstType::VectorUnitStrideMaskLoad            0                       # Class of committed instruction. (Count)
system.cpu1.commitStats0.committedInstType::VectorUnitStrideMaskStore            0                       # Class of committed instruction. (Count)
system.cpu1.commitStats0.committedInstType::VectorStridedLoad            0                       # Class of committed instruction. (Count)
system.cpu1.commitStats0.committedInstType::VectorStridedStore            0                       # Class of committed instruction. (Count)
system.cpu1.commitStats0.committedInstType::VectorIndexedLoad            0                       # Class of committed instruction. (Count)
system.cpu1.commitStats0.committedInstType::VectorIndexedStore            0                       # Class of committed instruction. (Count)
system.cpu1.commitStats0.committedInstType::VectorUnitStrideFaultOnlyFirstLoad            0                       # Class of committed instruction. (Count)
system.cpu1.commitStats0.committedInstType::VectorWholeRegisterLoad            0                       # Class of committed instruction. (Count)
system.cpu1.commitStats0.committedInstType::VectorWholeRegisterStore            0                       # Class of committed instruction. (Count)
system.cpu1.commitStats0.committedInstType::VectorIntegerArith            0                       # Class of committed instruction. (Count)
system.cpu1.commitStats0.committedInstType::VectorFloatArith            0                       # Class of committed instruction. (Count)
system.cpu1.commitStats0.committedInstType::VectorFloatConvert            0                       # Class of committed instruction. (Count)
system.cpu1.commitStats0.committedInstType::VectorIntegerReduce            0                       # Class of committed instruction. (Count)
system.cpu1.commitStats0.committedInstType::VectorFloatReduce            0                       # Class of committed instruction. (Count)
system.cpu1.commitStats0.committedInstType::VectorMisc            0                       # Class of committed instruction. (Count)
system.cpu1.commitStats0.committedInstType::VectorIntegerExtension            0                       # Class of committed instruction. (Count)
system.cpu1.commitStats0.committedInstType::VectorConfig            0                       # Class of committed instruction. (Count)
system.cpu1.commitStats0.committedInstType::total            0                       # Class of committed instruction. (Count)
system.cpu1.exec_context.thread_0.numMatAluAccesses            0                       # Number of matrix alu accesses (Count)
system.cpu1.exec_context.thread_0.numCallsReturns            0                       # Number of times a function call or return occured (Count)
system.cpu1.exec_context.thread_0.numMatInsts            0                       # Number of matrix instructions (Count)
system.cpu1.exec_context.thread_0.numIdleCycles            0                       # Number of idle cycles (Cycle)
system.cpu1.exec_context.thread_0.numBusyCycles            0                       # Number of busy cycles (Cycle)
system.cpu1.exec_context.thread_0.notIdleFraction            0                       # Percentage of non-idle cycles (Ratio)
system.cpu1.exec_context.thread_0.idleFraction            1                       # Percentage of idle cycles (Ratio)
system.cpu1.executeStats0.numInsts                  0                       # Number of executed instructions (Count)
system.cpu1.executeStats0.numNop                    0                       # Number of nop insts executed (Count)
system.cpu1.executeStats0.numBranches               0                       # Number of branches executed (Count)
system.cpu1.executeStats0.numLoadInsts              0                       # Number of load instructions executed (Count)
system.cpu1.executeStats0.numStoreInsts             0                       # Number of stores executed (Count)
system.cpu1.executeStats0.instRate                nan                       # Inst execution rate ((Count/Cycle))
system.cpu1.executeStats0.numFpRegWrites            0                       # Number of times the floating registers were written (Count)
system.cpu1.executeStats0.numMemRefs                0                       # Number of memory refs (Count)
system.cpu1.executeStats0.numVecAluAccesses            0                       # Number of vector alu accesses (Count)
system.cpu1.executeStats0.numDiscardedOps            0                       # Number of ops (including micro ops) which were discarded before commit (Count)
system.cpu1.fetchStats0.numInsts                    0                       # Number of instructions fetched (thread level) (Count)
system.cpu1.fetchStats0.numOps                      0                       # Number of ops (including micro ops) fetched (thread level) (Count)
system.cpu1.fetchStats0.fetchRate                 nan                       # Number of inst fetches per cycle ((Count/Cycle))
system.cpu1.fetchStats0.branchRate                nan                       # Number of branch fetches per cycle (Ratio)
system.cpu1.fetchStats0.numFetchSuspends            0                       # Number of times Execute suspended instruction fetching (Count)
system.cpu1.interrupts.clk_domain.clock          8000                       # Clock period in ticks (Tick)
system.cpu1.mmu.dtb.rdAccesses                      0                       # TLB accesses on read requests (Count)
system.cpu1.mmu.dtb.wrAccesses                      0                       # TLB accesses on write requests (Count)
system.cpu1.mmu.dtb.rdMisses                        0                       # TLB misses on read requests (Count)
system.cpu1.mmu.dtb.wrMisses                        0                       # TLB misses on write requests (Count)
system.cpu1.mmu.dtb.walker.power_state.pwrStateResidencyTicks::UNDEFINED  11137650000                       # Cumulative time (in ticks) in various power states (Tick)
system.cpu1.mmu.itb.rdAccesses                      0                       # TLB accesses on read requests (Count)
system.cpu1.mmu.itb.wrAccesses                      0                       # TLB accesses on write requests (Count)
system.cpu1.mmu.itb.rdMisses                        0                       # TLB misses on read requests (Count)
system.cpu1.mmu.itb.wrMisses                        0                       # TLB misses on write requests (Count)
system.cpu1.mmu.itb.walker.power_state.pwrStateResidencyTicks::UNDEFINED  11137650000                       # Cumulative time (in ticks) in various power states (Tick)
system.cpu1.power_state.pwrStateResidencyTicks::ON  11137650000                       # Cumulative time (in ticks) in various power states (Tick)
system.cpu1.thread_0.numInsts                       0                       # Number of Instructions committed (Count)
system.cpu1.thread_0.numOps                         0                       # Number of Ops committed (Count)
system.cpu1.thread_0.numMemRefs                     0                       # Number of Memory References (Count)
system.cpu2.numCycles                               0                       # Number of cpu cycles simulated (Cycle)
system.cpu2.cpi                                   nan                       # CPI: cycles per instruction (core level) ((Cycle/Count))
system.cpu2.ipc                                   nan                       # IPC: instructions per cycle (core level) ((Count/Cycle))
system.cpu2.numWorkItemsStarted                     0                       # Number of work items this cpu started (Count)
system.cpu2.numWorkItemsCompleted                   0                       # Number of work items this cpu completed (Count)
system.cpu2.commitStats0.numOps                     0                       # Number of ops (including micro ops) committed (thread level) (Count)
system.cpu2.commitStats0.numInstsNotNOP             0                       # Number of instructions committed excluding NOPs or prefetches (Count)
system.cpu2.commitStats0.numOpsNotNOP               0                       # Number of Ops (including micro ops) Simulated (Count)
system.cpu2.commitStats0.cpi                      nan                       # CPI: cycles per instruction (thread level) ((Cycle/Count))
system.cpu2.commitStats0.ipc                      nan                       # IPC: instructions per cycle (thread level) ((Count/Cycle))
system.cpu2.commitStats0.numMemRefs                 0                       # Number of memory references committed (Count)
system.cpu2.commitStats0.numFpInsts                 0                       # Number of float instructions (Count)
system.cpu2.commitStats0.numIntInsts                0                       # Number of integer instructions (Count)
system.cpu2.commitStats0.numLoadInsts               0                       # Number of load instructions (Count)
system.cpu2.commitStats0.numStoreInsts              0                       # Number of store instructions (Count)
system.cpu2.commitStats0.numVecInsts                0                       # Number of vector instructions (Count)
system.cpu2.commitStats0.committedInstType::No_OpClass            0                       # Class of committed instruction. (Count)
system.cpu2.commitStats0.committedInstType::IntAlu            0                       # Class of committed instruction. (Count)
system.cpu2.commitStats0.committedInstType::IntMult            0                       # Class of committed instruction. (Count)
system.cpu2.commitStats0.committedInstType::IntDiv            0                       # Class of committed instruction. (Count)
system.cpu2.commitStats0.committedInstType::FloatAdd            0                       # Class of committed instruction. (Count)
system.cpu2.commitStats0.committedInstType::FloatCmp            0                       # Class of committed instruction. (Count)
system.cpu2.commitStats0.committedInstType::FloatCvt            0                       # Class of committed instruction. (Count)
system.cpu2.commitStats0.committedInstType::FloatMult            0                       # Class of committed instruction. (Count)
system.cpu2.commitStats0.committedInstType::FloatMultAcc            0                       # Class of committed instruction. (Count)
system.cpu2.commitStats0.committedInstType::FloatDiv            0                       # Class of committed instruction. (Count)
system.cpu2.commitStats0.committedInstType::FloatMisc            0                       # Class of committed instruction. (Count)
system.cpu2.commitStats0.committedInstType::FloatSqrt            0                       # Class of committed instruction. (Count)
system.cpu2.commitStats0.committedInstType::SimdAdd            0                       # Class of committed instruction. (Count)
system.cpu2.commitStats0.committedInstType::SimdAddAcc            0                       # Class of committed instruction. (Count)
system.cpu2.commitStats0.committedInstType::SimdAlu            0                       # Class of committed instruction. (Count)
system.cpu2.commitStats0.committedInstType::SimdCmp            0                       # Class of committed instruction. (Count)
system.cpu2.commitStats0.committedInstType::SimdCvt            0                       # Class of committed instruction. (Count)
system.cpu2.commitStats0.committedInstType::SimdMisc            0                       # Class of committed instruction. (Count)
system.cpu2.commitStats0.committedInstType::SimdMult            0                       # Class of committed instruction. (Count)
system.cpu2.commitStats0.committedInstType::SimdMultAcc            0                       # Class of committed instruction. (Count)
system.cpu2.commitStats0.committedInstType::SimdMatMultAcc            0                       # Class of committed instruction. (Count)
system.cpu2.commitStats0.committedInstType::SimdShift            0                       # Class of committed instruction. (Count)
system.cpu2.commitStats0.committedInstType::SimdShiftAcc            0                       # Class of committed instruction. (Count)
system.cpu2.commitStats0.committedInstType::SimdDiv            0                       # Class of committed instruction. (Count)
system.cpu2.commitStats0.committedInstType::SimdSqrt            0                       # Class of committed instruction. (Count)
system.cpu2.commitStats0.committedInstType::SimdFloatAdd            0                       # Class of committed instruction. (Count)
system.cpu2.commitStats0.committedInstType::SimdFloatAlu            0                       # Class of committed instruction. (Count)
system.cpu2.commitStats0.committedInstType::SimdFloatCmp            0                       # Class of committed instruction. (Count)
system.cpu2.commitStats0.committedInstType::SimdFloatCvt            0                       # Class of committed instruction. (Count)
system.cpu2.commitStats0.committedInstType::SimdFloatDiv            0                       # Class of committed instruction. (Count)
system.cpu2.commitStats0.committedInstType::SimdFloatMisc            0                       # Class of committed instruction. (Count)
system.cpu2.commitStats0.committedInstType::SimdFloatMult            0                       # Class of committed instruction. (Count)
system.cpu2.commitStats0.committedInstType::SimdFloatMultAcc            0                       # Class of committed instruction. (Count)
system.cpu2.commitStats0.committedInstType::SimdFloatMatMultAcc            0                       # Class of committed instruction. (Count)
system.cpu2.commitStats0.committedInstType::SimdFloatSqrt            0                       # Class of committed instruction. (Count)
system.cpu2.commitStats0.committedInstType::SimdReduceAdd            0                       # Class of committed instruction. (Count)
system.cpu2.commitStats0.committedInstType::SimdReduceAlu            0                       # Class of committed instruction. (Count)
system.cpu2.commitStats0.committedInstType::SimdReduceCmp            0                       # Class of committed instruction. (Count)
system.cpu2.commitStats0.committedInstType::SimdFloatReduceAdd            0                       # Class of committed instruction. (Count)
system.cpu2.commitStats0.committedInstType::SimdFloatReduceCmp            0                       # Class of committed instruction. (Count)
system.cpu2.commitStats0.committedInstType::SimdAes            0                       # Class of committed instruction. (Count)
system.cpu2.commitStats0.committedInstType::SimdAesMix            0                       # Class of committed instruction. (Count)
system.cpu2.commitStats0.committedInstType::SimdSha1Hash            0                       # Class of committed instruction. (Count)
system.cpu2.commitStats0.committedInstType::SimdSha1Hash2            0                       # Class of committed instruction. (Count)
system.cpu2.commitStats0.committedInstType::SimdSha256Hash            0                       # Class of committed instruction. (Count)
system.cpu2.commitStats0.committedInstType::SimdSha256Hash2            0                       # Class of committed instruction. (Count)
system.cpu2.commitStats0.committedInstType::SimdShaSigma2            0                       # Class of committed instruction. (Count)
system.cpu2.commitStats0.committedInstType::SimdShaSigma3            0                       # Class of committed instruction. (Count)
system.cpu2.commitStats0.committedInstType::SimdPredAlu            0                       # Class of committed instruction. (Count)
system.cpu2.commitStats0.committedInstType::Matrix            0                       # Class of committed instruction. (Count)
system.cpu2.commitStats0.committedInstType::MatrixMov            0                       # Class of committed instruction. (Count)
system.cpu2.commitStats0.committedInstType::MatrixOP            0                       # Class of committed instruction. (Count)
system.cpu2.commitStats0.committedInstType::MemRead            0                       # Class of committed instruction. (Count)
system.cpu2.commitStats0.committedInstType::MemWrite            0                       # Class of committed instruction. (Count)
system.cpu2.commitStats0.committedInstType::FloatMemRead            0                       # Class of committed instruction. (Count)
system.cpu2.commitStats0.committedInstType::FloatMemWrite            0                       # Class of committed instruction. (Count)
system.cpu2.commitStats0.committedInstType::IprAccess            0                       # Class of committed instruction. (Count)
system.cpu2.commitStats0.committedInstType::InstPrefetch            0                       # Class of committed instruction. (Count)
system.cpu2.commitStats0.committedInstType::VectorUnitStrideLoad            0                       # Class of committed instruction. (Count)
system.cpu2.commitStats0.committedInstType::VectorUnitStrideStore            0                       # Class of committed instruction. (Count)
system.cpu2.commitStats0.committedInstType::VectorUnitStrideMaskLoad            0                       # Class of committed instruction. (Count)
system.cpu2.commitStats0.committedInstType::VectorUnitStrideMaskStore            0                       # Class of committed instruction. (Count)
system.cpu2.commitStats0.committedInstType::VectorStridedLoad            0                       # Class of committed instruction. (Count)
system.cpu2.commitStats0.committedInstType::VectorStridedStore            0                       # Class of committed instruction. (Count)
system.cpu2.commitStats0.committedInstType::VectorIndexedLoad            0                       # Class of committed instruction. (Count)
system.cpu2.commitStats0.committedInstType::VectorIndexedStore            0                       # Class of committed instruction. (Count)
system.cpu2.commitStats0.committedInstType::VectorUnitStrideFaultOnlyFirstLoad            0                       # Class of committed instruction. (Count)
system.cpu2.commitStats0.committedInstType::VectorWholeRegisterLoad            0                       # Class of committed instruction. (Count)
system.cpu2.commitStats0.committedInstType::VectorWholeRegisterStore            0                       # Class of committed instruction. (Count)
system.cpu2.commitStats0.committedInstType::VectorIntegerArith            0                       # Class of committed instruction. (Count)
system.cpu2.commitStats0.committedInstType::VectorFloatArith            0                       # Class of committed instruction. (Count)
system.cpu2.commitStats0.committedInstType::VectorFloatConvert            0                       # Class of committed instruction. (Count)
system.cpu2.commitStats0.committedInstType::VectorIntegerReduce            0                       # Class of committed instruction. (Count)
system.cpu2.commitStats0.committedInstType::VectorFloatReduce            0                       # Class of committed instruction. (Count)
system.cpu2.commitStats0.committedInstType::VectorMisc            0                       # Class of committed instruction. (Count)
system.cpu2.commitStats0.committedInstType::VectorIntegerExtension            0                       # Class of committed instruction. (Count)
system.cpu2.commitStats0.committedInstType::VectorConfig            0                       # Class of committed instruction. (Count)
system.cpu2.commitStats0.committedInstType::total            0                       # Class of committed instruction. (Count)
system.cpu2.exec_context.thread_0.numMatAluAccesses            0                       # Number of matrix alu accesses (Count)
system.cpu2.exec_context.thread_0.numCallsReturns            0                       # Number of times a function call or return occured (Count)
system.cpu2.exec_context.thread_0.numMatInsts            0                       # Number of matrix instructions (Count)
system.cpu2.exec_context.thread_0.numIdleCycles            0                       # Number of idle cycles (Cycle)
system.cpu2.exec_context.thread_0.numBusyCycles            0                       # Number of busy cycles (Cycle)
system.cpu2.exec_context.thread_0.notIdleFraction            0                       # Percentage of non-idle cycles (Ratio)
system.cpu2.exec_context.thread_0.idleFraction            1                       # Percentage of idle cycles (Ratio)
system.cpu2.executeStats0.numInsts                  0                       # Number of executed instructions (Count)
system.cpu2.executeStats0.numNop                    0                       # Number of nop insts executed (Count)
system.cpu2.executeStats0.numBranches               0                       # Number of branches executed (Count)
system.cpu2.executeStats0.numLoadInsts              0                       # Number of load instructions executed (Count)
system.cpu2.executeStats0.numStoreInsts             0                       # Number of stores executed (Count)
system.cpu2.executeStats0.instRate                nan                       # Inst execution rate ((Count/Cycle))
system.cpu2.executeStats0.numFpRegWrites            0                       # Number of times the floating registers were written (Count)
system.cpu2.executeStats0.numMemRefs                0                       # Number of memory refs (Count)
system.cpu2.executeStats0.numVecAluAccesses            0                       # Number of vector alu accesses (Count)
system.cpu2.executeStats0.numDiscardedOps            0                       # Number of ops (including micro ops) which were discarded before commit (Count)
system.cpu2.fetchStats0.numInsts                    0                       # Number of instructions fetched (thread level) (Count)
system.cpu2.fetchStats0.numOps                      0                       # Number of ops (including micro ops) fetched (thread level) (Count)
system.cpu2.fetchStats0.fetchRate                 nan                       # Number of inst fetches per cycle ((Count/Cycle))
system.cpu2.fetchStats0.branchRate                nan                       # Number of branch fetches per cycle (Ratio)
system.cpu2.fetchStats0.numFetchSuspends            0                       # Number of times Execute suspended instruction fetching (Count)
system.cpu2.interrupts.clk_domain.clock          8000                       # Clock period in ticks (Tick)
system.cpu2.mmu.dtb.rdAccesses                      0                       # TLB accesses on read requests (Count)
system.cpu2.mmu.dtb.wrAccesses                      0                       # TLB accesses on write requests (Count)
system.cpu2.mmu.dtb.rdMisses                        0                       # TLB misses on read requests (Count)
system.cpu2.mmu.dtb.wrMisses                        0                       # TLB misses on write requests (Count)
system.cpu2.mmu.dtb.walker.power_state.pwrStateResidencyTicks::UNDEFINED  11137650000                       # Cumulative time (in ticks) in various power states (Tick)
system.cpu2.mmu.itb.rdAccesses                      0                       # TLB accesses on read requests (Count)
system.cpu2.mmu.itb.wrAccesses                      0                       # TLB accesses on write requests (Count)
system.cpu2.mmu.itb.rdMisses                        0                       # TLB misses on read requests (Count)
system.cpu2.mmu.itb.wrMisses                        0                       # TLB misses on write requests (Count)
system.cpu2.mmu.itb.walker.power_state.pwrStateResidencyTicks::UNDEFINED  11137650000                       # Cumulative time (in ticks) in various power states (Tick)
system.cpu2.power_state.pwrStateResidencyTicks::ON  11137650000                       # Cumulative time (in ticks) in various power states (Tick)
system.cpu2.thread_0.numInsts                       0                       # Number of Instructions committed (Count)
system.cpu2.thread_0.numOps                         0                       # Number of Ops committed (Count)
system.cpu2.thread_0.numMemRefs                     0                       # Number of Memory References (Count)
system.cpu3.numCycles                               0                       # Number of cpu cycles simulated (Cycle)
system.cpu3.cpi                                   nan                       # CPI: cycles per instruction (core level) ((Cycle/Count))
system.cpu3.ipc                                   nan                       # IPC: instructions per cycle (core level) ((Count/Cycle))
system.cpu3.numWorkItemsStarted                     0                       # Number of work items this cpu started (Count)
system.cpu3.numWorkItemsCompleted                   0                       # Number of work items this cpu completed (Count)
system.cpu3.commitStats0.numOps                     0                       # Number of ops (including micro ops) committed (thread level) (Count)
system.cpu3.commitStats0.numInstsNotNOP             0                       # Number of instructions committed excluding NOPs or prefetches (Count)
system.cpu3.commitStats0.numOpsNotNOP               0                       # Number of Ops (including micro ops) Simulated (Count)
system.cpu3.commitStats0.cpi                      nan                       # CPI: cycles per instruction (thread level) ((Cycle/Count))
system.cpu3.commitStats0.ipc                      nan                       # IPC: instructions per cycle (thread level) ((Count/Cycle))
system.cpu3.commitStats0.numMemRefs                 0                       # Number of memory references committed (Count)
system.cpu3.commitStats0.numFpInsts                 0                       # Number of float instructions (Count)
system.cpu3.commitStats0.numIntInsts                0                       # Number of integer instructions (Count)
system.cpu3.commitStats0.numLoadInsts               0                       # Number of load instructions (Count)
system.cpu3.commitStats0.numStoreInsts              0                       # Number of store instructions (Count)
system.cpu3.commitStats0.numVecInsts                0                       # Number of vector instructions (Count)
system.cpu3.commitStats0.committedInstType::No_OpClass            0                       # Class of committed instruction. (Count)
system.cpu3.commitStats0.committedInstType::IntAlu            0                       # Class of committed instruction. (Count)
system.cpu3.commitStats0.committedInstType::IntMult            0                       # Class of committed instruction. (Count)
system.cpu3.commitStats0.committedInstType::IntDiv            0                       # Class of committed instruction. (Count)
system.cpu3.commitStats0.committedInstType::FloatAdd            0                       # Class of committed instruction. (Count)
system.cpu3.commitStats0.committedInstType::FloatCmp            0                       # Class of committed instruction. (Count)
system.cpu3.commitStats0.committedInstType::FloatCvt            0                       # Class of committed instruction. (Count)
system.cpu3.commitStats0.committedInstType::FloatMult            0                       # Class of committed instruction. (Count)
system.cpu3.commitStats0.committedInstType::FloatMultAcc            0                       # Class of committed instruction. (Count)
system.cpu3.commitStats0.committedInstType::FloatDiv            0                       # Class of committed instruction. (Count)
system.cpu3.commitStats0.committedInstType::FloatMisc            0                       # Class of committed instruction. (Count)
system.cpu3.commitStats0.committedInstType::FloatSqrt            0                       # Class of committed instruction. (Count)
system.cpu3.commitStats0.committedInstType::SimdAdd            0                       # Class of committed instruction. (Count)
system.cpu3.commitStats0.committedInstType::SimdAddAcc            0                       # Class of committed instruction. (Count)
system.cpu3.commitStats0.committedInstType::SimdAlu            0                       # Class of committed instruction. (Count)
system.cpu3.commitStats0.committedInstType::SimdCmp            0                       # Class of committed instruction. (Count)
system.cpu3.commitStats0.committedInstType::SimdCvt            0                       # Class of committed instruction. (Count)
system.cpu3.commitStats0.committedInstType::SimdMisc            0                       # Class of committed instruction. (Count)
system.cpu3.commitStats0.committedInstType::SimdMult            0                       # Class of committed instruction. (Count)
system.cpu3.commitStats0.committedInstType::SimdMultAcc            0                       # Class of committed instruction. (Count)
system.cpu3.commitStats0.committedInstType::SimdMatMultAcc            0                       # Class of committed instruction. (Count)
system.cpu3.commitStats0.committedInstType::SimdShift            0                       # Class of committed instruction. (Count)
system.cpu3.commitStats0.committedInstType::SimdShiftAcc            0                       # Class of committed instruction. (Count)
system.cpu3.commitStats0.committedInstType::SimdDiv            0                       # Class of committed instruction. (Count)
system.cpu3.commitStats0.committedInstType::SimdSqrt            0                       # Class of committed instruction. (Count)
system.cpu3.commitStats0.committedInstType::SimdFloatAdd            0                       # Class of committed instruction. (Count)
system.cpu3.commitStats0.committedInstType::SimdFloatAlu            0                       # Class of committed instruction. (Count)
system.cpu3.commitStats0.committedInstType::SimdFloatCmp            0                       # Class of committed instruction. (Count)
system.cpu3.commitStats0.committedInstType::SimdFloatCvt            0                       # Class of committed instruction. (Count)
system.cpu3.commitStats0.committedInstType::SimdFloatDiv            0                       # Class of committed instruction. (Count)
system.cpu3.commitStats0.committedInstType::SimdFloatMisc            0                       # Class of committed instruction. (Count)
system.cpu3.commitStats0.committedInstType::SimdFloatMult            0                       # Class of committed instruction. (Count)
system.cpu3.commitStats0.committedInstType::SimdFloatMultAcc            0                       # Class of committed instruction. (Count)
system.cpu3.commitStats0.committedInstType::SimdFloatMatMultAcc            0                       # Class of committed instruction. (Count)
system.cpu3.commitStats0.committedInstType::SimdFloatSqrt            0                       # Class of committed instruction. (Count)
system.cpu3.commitStats0.committedInstType::SimdReduceAdd            0                       # Class of committed instruction. (Count)
system.cpu3.commitStats0.committedInstType::SimdReduceAlu            0                       # Class of committed instruction. (Count)
system.cpu3.commitStats0.committedInstType::SimdReduceCmp            0                       # Class of committed instruction. (Count)
system.cpu3.commitStats0.committedInstType::SimdFloatReduceAdd            0                       # Class of committed instruction. (Count)
system.cpu3.commitStats0.committedInstType::SimdFloatReduceCmp            0                       # Class of committed instruction. (Count)
system.cpu3.commitStats0.committedInstType::SimdAes            0                       # Class of committed instruction. (Count)
system.cpu3.commitStats0.committedInstType::SimdAesMix            0                       # Class of committed instruction. (Count)
system.cpu3.commitStats0.committedInstType::SimdSha1Hash            0                       # Class of committed instruction. (Count)
system.cpu3.commitStats0.committedInstType::SimdSha1Hash2            0                       # Class of committed instruction. (Count)
system.cpu3.commitStats0.committedInstType::SimdSha256Hash            0                       # Class of committed instruction. (Count)
system.cpu3.commitStats0.committedInstType::SimdSha256Hash2            0                       # Class of committed instruction. (Count)
system.cpu3.commitStats0.committedInstType::SimdShaSigma2            0                       # Class of committed instruction. (Count)
system.cpu3.commitStats0.committedInstType::SimdShaSigma3            0                       # Class of committed instruction. (Count)
system.cpu3.commitStats0.committedInstType::SimdPredAlu            0                       # Class of committed instruction. (Count)
system.cpu3.commitStats0.committedInstType::Matrix            0                       # Class of committed instruction. (Count)
system.cpu3.commitStats0.committedInstType::MatrixMov            0                       # Class of committed instruction. (Count)
system.cpu3.commitStats0.committedInstType::MatrixOP            0                       # Class of committed instruction. (Count)
system.cpu3.commitStats0.committedInstType::MemRead            0                       # Class of committed instruction. (Count)
system.cpu3.commitStats0.committedInstType::MemWrite            0                       # Class of committed instruction. (Count)
system.cpu3.commitStats0.committedInstType::FloatMemRead            0                       # Class of committed instruction. (Count)
system.cpu3.commitStats0.committedInstType::FloatMemWrite            0                       # Class of committed instruction. (Count)
system.cpu3.commitStats0.committedInstType::IprAccess            0                       # Class of committed instruction. (Count)
system.cpu3.commitStats0.committedInstType::InstPrefetch            0                       # Class of committed instruction. (Count)
system.cpu3.commitStats0.committedInstType::VectorUnitStrideLoad            0                       # Class of committed instruction. (Count)
system.cpu3.commitStats0.committedInstType::VectorUnitStrideStore            0                       # Class of committed instruction. (Count)
system.cpu3.commitStats0.committedInstType::VectorUnitStrideMaskLoad            0                       # Class of committed instruction. (Count)
system.cpu3.commitStats0.committedInstType::VectorUnitStrideMaskStore            0                       # Class of committed instruction. (Count)
system.cpu3.commitStats0.committedInstType::VectorStridedLoad            0                       # Class of committed instruction. (Count)
system.cpu3.commitStats0.committedInstType::VectorStridedStore            0                       # Class of committed instruction. (Count)
system.cpu3.commitStats0.committedInstType::VectorIndexedLoad            0                       # Class of committed instruction. (Count)
system.cpu3.commitStats0.committedInstType::VectorIndexedStore            0                       # Class of committed instruction. (Count)
system.cpu3.commitStats0.committedInstType::VectorUnitStrideFaultOnlyFirstLoad            0                       # Class of committed instruction. (Count)
system.cpu3.commitStats0.committedInstType::VectorWholeRegisterLoad            0                       # Class of committed instruction. (Count)
system.cpu3.commitStats0.committedInstType::VectorWholeRegisterStore            0                       # Class of committed instruction. (Count)
system.cpu3.commitStats0.committedInstType::VectorIntegerArith            0                       # Class of committed instruction. (Count)
system.cpu3.commitStats0.committedInstType::VectorFloatArith            0                       # Class of committed instruction. (Count)
system.cpu3.commitStats0.committedInstType::VectorFloatConvert            0                       # Class of committed instruction. (Count)
system.cpu3.commitStats0.committedInstType::VectorIntegerReduce            0                       # Class of committed instruction. (Count)
system.cpu3.commitStats0.committedInstType::VectorFloatReduce            0                       # Class of committed instruction. (Count)
system.cpu3.commitStats0.committedInstType::VectorMisc            0                       # Class of committed instruction. (Count)
system.cpu3.commitStats0.committedInstType::VectorIntegerExtension            0                       # Class of committed instruction. (Count)
system.cpu3.commitStats0.committedInstType::VectorConfig            0                       # Class of committed instruction. (Count)
system.cpu3.commitStats0.committedInstType::total            0                       # Class of committed instruction. (Count)
system.cpu3.exec_context.thread_0.numMatAluAccesses            0                       # Number of matrix alu accesses (Count)
system.cpu3.exec_context.thread_0.numCallsReturns            0                       # Number of times a function call or return occured (Count)
system.cpu3.exec_context.thread_0.numMatInsts            0                       # Number of matrix instructions (Count)
system.cpu3.exec_context.thread_0.numIdleCycles            0                       # Number of idle cycles (Cycle)
system.cpu3.exec_context.thread_0.numBusyCycles            0                       # Number of busy cycles (Cycle)
system.cpu3.exec_context.thread_0.notIdleFraction            0                       # Percentage of non-idle cycles (Ratio)
system.cpu3.exec_context.thread_0.idleFraction            1                       # Percentage of idle cycles (Ratio)
system.cpu3.executeStats0.numInsts                  0                       # Number of executed instructions (Count)
system.cpu3.executeStats0.numNop                    0                       # Number of nop insts executed (Count)
system.cpu3.executeStats0.numBranches               0                       # Number of branches executed (Count)
system.cpu3.executeStats0.numLoadInsts              0                       # Number of load instructions executed (Count)
system.cpu3.executeStats0.numStoreInsts             0                       # Number of stores executed (Count)
system.cpu3.executeStats0.instRate                nan                       # Inst execution rate ((Count/Cycle))
system.cpu3.executeStats0.numFpRegWrites            0                       # Number of times the floating registers were written (Count)
system.cpu3.executeStats0.numMemRefs                0                       # Number of memory refs (Count)
system.cpu3.executeStats0.numVecAluAccesses            0                       # Number of vector alu accesses (Count)
system.cpu3.executeStats0.numDiscardedOps            0                       # Number of ops (including micro ops) which were discarded before commit (Count)
system.cpu3.fetchStats0.numInsts                    0                       # Number of instructions fetched (thread level) (Count)
system.cpu3.fetchStats0.numOps                      0                       # Number of ops (including micro ops) fetched (thread level) (Count)
system.cpu3.fetchStats0.fetchRate                 nan                       # Number of inst fetches per cycle ((Count/Cycle))
system.cpu3.fetchStats0.branchRate                nan                       # Number of branch fetches per cycle (Ratio)
system.cpu3.fetchStats0.numFetchSuspends            0                       # Number of times Execute suspended instruction fetching (Count)
system.cpu3.interrupts.clk_domain.clock          8000                       # Clock period in ticks (Tick)
system.cpu3.mmu.dtb.rdAccesses                      0                       # TLB accesses on read requests (Count)
system.cpu3.mmu.dtb.wrAccesses                      0                       # TLB accesses on write requests (Count)
system.cpu3.mmu.dtb.rdMisses                        0                       # TLB misses on read requests (Count)
system.cpu3.mmu.dtb.wrMisses                        0                       # TLB misses on write requests (Count)
system.cpu3.mmu.dtb.walker.power_state.pwrStateResidencyTicks::UNDEFINED  11137650000                       # Cumulative time (in ticks) in various power states (Tick)
system.cpu3.mmu.itb.rdAccesses                      0                       # TLB accesses on read requests (Count)
system.cpu3.mmu.itb.wrAccesses                      0                       # TLB accesses on write requests (Count)
system.cpu3.mmu.itb.rdMisses                        0                       # TLB misses on read requests (Count)
system.cpu3.mmu.itb.wrMisses                        0                       # TLB misses on write requests (Count)
system.cpu3.mmu.itb.walker.power_state.pwrStateResidencyTicks::UNDEFINED  11137650000                       # Cumulative time (in ticks) in various power states (Tick)
system.cpu3.power_state.pwrStateResidencyTicks::ON  11137650000                       # Cumulative time (in ticks) in various power states (Tick)
system.cpu3.thread_0.numInsts                       0                       # Number of Instructions committed (Count)
system.cpu3.thread_0.numOps                         0                       # Number of Ops committed (Count)
system.cpu3.thread_0.numMemRefs                     0                       # Number of Memory References (Count)
system.cpu_clk_domain.clock                       500                       # Clock period in ticks (Tick)
system.cpu_voltage_domain.voltage                   1                       # Voltage in Volts (Volt)
system.mem_ctrls0.avgPriority_ruby.dir_cntrl0::samples      2918.00                       # Average QoS priority value for accepted requests (Count)
system.mem_ctrls0.priorityMinLatency     0.000000018750                       # per QoS priority minimum request to response latency (Second)
system.mem_ctrls0.priorityMaxLatency     0.014075963500                       # per QoS priority maximum request to response latency (Second)
system.mem_ctrls0.numReadWriteTurnArounds            7                       # Number of turnarounds from READ to WRITE (Count)
system.mem_ctrls0.numWriteReadTurnArounds            7                       # Number of turnarounds from WRITE to READ (Count)
system.mem_ctrls0.numStayReadState               8553                       # Number of times bus staying in READ state (Count)
system.mem_ctrls0.numStayWriteState               119                       # Number of times bus staying in WRITE state (Count)
system.mem_ctrls0.readReqs                       2784                       # Number of read requests accepted (Count)
system.mem_ctrls0.writeReqs                       143                       # Number of write requests accepted (Count)
system.mem_ctrls0.readBursts                     2784                       # Number of controller read bursts, including those serviced by the write queue (Count)
system.mem_ctrls0.writeBursts                     143                       # Number of controller write bursts, including those merged in the write queue (Count)
system.mem_ctrls0.servicedByWrQ                     9                       # Number of controller read bursts serviced by the write queue (Count)
system.mem_ctrls0.mergedWrBursts                    0                       # Number of controller write bursts merged with an existing one (Count)
system.mem_ctrls0.neitherReadNorWriteReqs            0                       # Number of requests that are neither read nor write (Count)
system.mem_ctrls0.avgRdQLen                      1.00                       # Average read queue length when enqueuing ((Count/Tick))
system.mem_ctrls0.avgWrQLen                     22.17                       # Average write queue length when enqueuing ((Count/Tick))
system.mem_ctrls0.numRdRetry                        0                       # Number of times read queue was full causing retry (Count)
system.mem_ctrls0.numWrRetry                        0                       # Number of times write queue was full causing retry (Count)
system.mem_ctrls0.readPktSize::0                    0                       # Read request sizes (log2) (Count)
system.mem_ctrls0.readPktSize::1                    0                       # Read request sizes (log2) (Count)
system.mem_ctrls0.readPktSize::2                    0                       # Read request sizes (log2) (Count)
system.mem_ctrls0.readPktSize::3                    0                       # Read request sizes (log2) (Count)
system.mem_ctrls0.readPktSize::4                    0                       # Read request sizes (log2) (Count)
system.mem_ctrls0.readPktSize::5                    0                       # Read request sizes (log2) (Count)
system.mem_ctrls0.readPktSize::6                 2784                       # Read request sizes (log2) (Count)
system.mem_ctrls0.writePktSize::0                   0                       # Write request sizes (log2) (Count)
system.mem_ctrls0.writePktSize::1                   0                       # Write request sizes (log2) (Count)
system.mem_ctrls0.writePktSize::2                   0                       # Write request sizes (log2) (Count)
system.mem_ctrls0.writePktSize::3                   0                       # Write request sizes (log2) (Count)
system.mem_ctrls0.writePktSize::4                   0                       # Write request sizes (log2) (Count)
system.mem_ctrls0.writePktSize::5                   0                       # Write request sizes (log2) (Count)
system.mem_ctrls0.writePktSize::6                 143                       # Write request sizes (log2) (Count)
system.mem_ctrls0.rdQLenPdf::0                   2775                       # What read queue length does an incoming req see (Count)
system.mem_ctrls0.rdQLenPdf::1                      0                       # What read queue length does an incoming req see (Count)
system.mem_ctrls0.rdQLenPdf::2                      0                       # What read queue length does an incoming req see (Count)
system.mem_ctrls0.rdQLenPdf::3                      0                       # What read queue length does an incoming req see (Count)
system.mem_ctrls0.rdQLenPdf::4                      0                       # What read queue length does an incoming req see (Count)
system.mem_ctrls0.rdQLenPdf::5                      0                       # What read queue length does an incoming req see (Count)
system.mem_ctrls0.rdQLenPdf::6                      0                       # What read queue length does an incoming req see (Count)
system.mem_ctrls0.rdQLenPdf::7                      0                       # What read queue length does an incoming req see (Count)
system.mem_ctrls0.rdQLenPdf::8                      0                       # What read queue length does an incoming req see (Count)
system.mem_ctrls0.rdQLenPdf::9                      0                       # What read queue length does an incoming req see (Count)
system.mem_ctrls0.rdQLenPdf::10                     0                       # What read queue length does an incoming req see (Count)
system.mem_ctrls0.rdQLenPdf::11                     0                       # What read queue length does an incoming req see (Count)
system.mem_ctrls0.rdQLenPdf::12                     0                       # What read queue length does an incoming req see (Count)
system.mem_ctrls0.rdQLenPdf::13                     0                       # What read queue length does an incoming req see (Count)
system.mem_ctrls0.rdQLenPdf::14                     0                       # What read queue length does an incoming req see (Count)
system.mem_ctrls0.rdQLenPdf::15                     0                       # What read queue length does an incoming req see (Count)
system.mem_ctrls0.rdQLenPdf::16                     0                       # What read queue length does an incoming req see (Count)
system.mem_ctrls0.rdQLenPdf::17                     0                       # What read queue length does an incoming req see (Count)
system.mem_ctrls0.rdQLenPdf::18                     0                       # What read queue length does an incoming req see (Count)
system.mem_ctrls0.rdQLenPdf::19                     0                       # What read queue length does an incoming req see (Count)
system.mem_ctrls0.rdQLenPdf::20                     0                       # What read queue length does an incoming req see (Count)
system.mem_ctrls0.rdQLenPdf::21                     0                       # What read queue length does an incoming req see (Count)
system.mem_ctrls0.rdQLenPdf::22                     0                       # What read queue length does an incoming req see (Count)
[...]
system.ruby.network.int_links1.dst_cred_bridge.power_state.pwrStateResidencyTicks::UNDEFINED  11137650000                       # Cumulative time (in ticks) in various power states (Tick)
system.ruby.network.int_links1.dst_net_bridge.power_state.pwrStateResidencyTicks::UNDEFINED  11137650000                       # Cumulative time (in ticks) in various power states (Tick)
system.ruby.network.int_links1.network_link.power_state.pwrStateResidencyTicks::UNDEFINED  11137650000                       # Cumulative time (in ticks) in various power states (Tick)
system.ruby.network.int_links1.src_cred_bridge.power_state.pwrStateResidencyTicks::UNDEFINED  11137650000                       # Cumulative time (in ticks) in various power states (Tick)
system.ruby.network.int_links1.src_net_bridge.power_state.pwrStateResidencyTicks::UNDEFINED  11137650000                       # Cumulative time (in ticks) in various power states (Tick)
system.ruby.network.int_links2.credit_link.power_state.pwrStateResidencyTicks::UNDEFINED  11137650000                       # Cumulative time (in ticks) in various power states (Tick)
system.ruby.network.int_links2.dst_cred_bridge.power_state.pwrStateResidencyTicks::UNDEFINED  11137650000                       # Cumulative time (in ticks) in various power states (Tick)
system.ruby.network.int_links2.dst_net_bridge.power_state.pwrStateResidencyTicks::UNDEFINED  11137650000                       # Cumulative time (in ticks) in various power states (Tick)
system.ruby.network.int_links2.network_link.power_state.pwrStateResidencyTicks::UNDEFINED  11137650000                       # Cumulative time (in ticks) in various power states (Tick)
system.ruby.network.int_links2.src_cred_bridge.power_state.pwrStateResidencyTicks::UNDEFINED  11137650000                       # Cumulative time (in ticks) in various power states (Tick)
system.ruby.network.int_links2.src_net_bridge.power_state.pwrStateResidencyTicks::UNDEFINED  11137650000                       # Cumulative time (in ticks) in various power states (Tick)
system.ruby.network.int_links3.credit_link.power_state.pwrStateResidencyTicks::UNDEFINED  11137650000                       # Cumulative time (in ticks) in various power states (Tick)
system.ruby.network.int_links3.dst_cred_bridge.power_state.pwrStateResidencyTicks::UNDEFINED  11137650000                       # Cumulative time (in ticks) in various power states (Tick)
system.ruby.network.int_links3.dst_net_bridge.power_state.pwrStateResidencyTicks::UNDEFINED  11137650000                       # Cumulative time (in ticks) in various power states (Tick)
system.ruby.network.int_links3.network_link.power_state.pwrStateResidencyTicks::UNDEFINED  11137650000                       # Cumulative time (in ticks) in various power states (Tick)
system.ruby.network.int_links3.src_cred_bridge.power_state.pwrStateResidencyTicks::UNDEFINED  11137650000                       # Cumulative time (in ticks) in various power states (Tick)
system.ruby.network.int_links3.src_net_bridge.power_state.pwrStateResidencyTicks::UNDEFINED  11137650000                       # Cumulative time (in ticks) in various power states (Tick)
system.ruby.network.int_links4.credit_link.power_state.pwrStateResidencyTicks::UNDEFINED  11137650000                       # Cumulative time (in ticks) in various power states (Tick)
system.ruby.network.int_links4.dst_cred_bridge.power_state.pwrStateResidencyTicks::UNDEFINED  11137650000                       # Cumulative time (in ticks) in various power states (Tick)
system.ruby.network.int_links4.dst_net_bridge.power_state.pwrStateResidencyTicks::UNDEFINED  11137650000                       # Cumulative time (in ticks) in various power states (Tick)
system.ruby.network.int_links4.network_link.power_state.pwrStateResidencyTicks::UNDEFINED  11137650000                       # Cumulative time (in ticks) in various power states (Tick)
system.ruby.network.int_links4.src_cred_bridge.power_state.pwrStateResidencyTicks::UNDEFINED  11137650000                       # Cumulative time (in ticks) in various power states (Tick)
system.ruby.network.int_links4.src_net_bridge.power_state.pwrStateResidencyTicks::UNDEFINED  11137650000                       # Cumulative time (in ticks) in various power states (Tick)
system.ruby.network.int_links5.credit_link.power_state.pwrStateResidencyTicks::UNDEFINED  11137650000                       # Cumulative time (in ticks) in various power states (Tick)
system.ruby.network.int_links5.dst_cred_bridge.power_state.pwrStateResidencyTicks::UNDEFINED  11137650000                       # Cumulative time (in ticks) in various power states (Tick)
system.ruby.network.int_links5.dst_net_bridge.power_state.pwrStateResidencyTicks::UNDEFINED  11137650000                       # Cumulative time (in ticks) in various power states (Tick)
system.ruby.network.int_links5.network_link.power_state.pwrStateResidencyTicks::UNDEFINED  11137650000                       # Cumulative time (in ticks) in various power states (Tick)
system.ruby.network.int_links5.src_cred_bridge.power_state.pwrStateResidencyTicks::UNDEFINED  11137650000                       # Cumulative time (in ticks) in various power states (Tick)
system.ruby.network.int_links5.src_net_bridge.power_state.pwrStateResidencyTicks::UNDEFINED  11137650000                       # Cumulative time (in ticks) in various power states (Tick)
system.ruby.network.int_links6.credit_link.power_state.pwrStateResidencyTicks::UNDEFINED  11137650000                       # Cumulative time (in ticks) in various power states (Tick)
system.ruby.network.int_links6.dst_cred_bridge.power_state.pwrStateResidencyTicks::UNDEFINED  11137650000                       # Cumulative time (in ticks) in various power states (Tick)
system.ruby.network.int_links6.dst_net_bridge.power_state.pwrStateResidencyTicks::UNDEFINED  11137650000                       # Cumulative time (in ticks) in various power states (Tick)
system.ruby.network.int_links6.network_link.power_state.pwrStateResidencyTicks::UNDEFINED  11137650000                       # Cumulative time (in ticks) in various power states (Tick)
system.ruby.network.int_links6.src_cred_bridge.power_state.pwrStateResidencyTicks::UNDEFINED  11137650000                       # Cumulative time (in ticks) in various power states (Tick)
system.ruby.network.int_links6.src_net_bridge.power_state.pwrStateResidencyTicks::UNDEFINED  11137650000                       # Cumulative time (in ticks) in various power states (Tick)
system.ruby.network.int_links7.credit_link.power_state.pwrStateResidencyTicks::UNDEFINED  11137650000                       # Cumulative time (in ticks) in various power states (Tick)
system.ruby.network.int_links7.dst_cred_bridge.power_state.pwrStateResidencyTicks::UNDEFINED  11137650000                       # Cumulative time (in ticks) in various power states (Tick)
system.ruby.network.int_links7.dst_net_bridge.power_state.pwrStateResidencyTicks::UNDEFINED  11137650000                       # Cumulative time (in ticks) in various power states (Tick)
system.ruby.network.int_links7.network_link.power_state.pwrStateResidencyTicks::UNDEFINED  11137650000                       # Cumulative time (in ticks) in various power states (Tick)
system.ruby.network.int_links7.src_cred_bridge.power_state.pwrStateResidencyTicks::UNDEFINED  11137650000                       # Cumulative time (in ticks) in various power states (Tick)
system.ruby.network.int_links7.src_net_bridge.power_state.pwrStateResidencyTicks::UNDEFINED  11137650000                       # Cumulative time (in ticks) in various power states (Tick)
system.ruby.network.netifs0.power_state.pwrStateResidencyTicks::UNDEFINED  11137650000                       # Cumulative time (in ticks) in various power states (Tick)
system.ruby.network.netifs1.power_state.pwrStateResidencyTicks::UNDEFINED  11137650000                       # Cumulative time (in ticks) in various power states (Tick)
system.ruby.network.netifs2.power_state.pwrStateResidencyTicks::UNDEFINED  11137650000                       # Cumulative time (in ticks) in various power states (Tick)
system.ruby.network.netifs3.power_state.pwrStateResidencyTicks::UNDEFINED  11137650000                       # Cumulative time (in ticks) in various power states (Tick)
system.ruby.network.netifs4.power_state.pwrStateResidencyTicks::UNDEFINED  11137650000                       # Cumulative time (in ticks) in various power states (Tick)
system.ruby.network.netifs5.power_state.pwrStateResidencyTicks::UNDEFINED  11137650000                       # Cumulative time (in ticks) in various power states (Tick)
system.ruby.network.netifs6.power_state.pwrStateResidencyTicks::UNDEFINED  11137650000                       # Cumulative time (in ticks) in various power states (Tick)
system.ruby.network.netifs7.power_state.pwrStateResidencyTicks::UNDEFINED  11137650000                       # Cumulative time (in ticks) in various power states (Tick)
system.ruby.network.netifs8.power_state.pwrStateResidencyTicks::UNDEFINED  11137650000                       # Cumulative time (in ticks) in various power states (Tick)
system.ruby.network.power_state.pwrStateResidencyTicks::UNDEFINED  11137650000                       # Cumulative time (in ticks) in various power states (Tick)
system.ruby.network.routers0.power_state.pwrStateResidencyTicks::UNDEFINED  11137650000                       # Cumulative time (in ticks) in various power states (Tick)
system.ruby.network.routers1.power_state.pwrStateResidencyTicks::UNDEFINED  11137650000                       # Cumulative time (in ticks) in various power states (Tick)
system.ruby.network.routers2.power_state.pwrStateResidencyTicks::UNDEFINED  11137650000                       # Cumulative time (in ticks) in various power states (Tick)
system.ruby.network.routers3.power_state.pwrStateResidencyTicks::UNDEFINED  11137650000                       # Cumulative time (in ticks) in various power states (Tick)
system.ruby.power_state.pwrStateResidencyTicks::UNDEFINED  11137650000                       # Cumulative time (in ticks) in various power states (Tick)
system.sys_port_proxy.power_state.pwrStateResidencyTicks::UNDEFINED  11137650000                       # Cumulative time (in ticks) in various power states (Tick)
system.voltage_domain.voltage                       1                       # Voltage in Volts (Volt)
system.workload.inst.arm                            0                       # number of arm instructions executed (Count)
system.workload.inst.quiesce                        0                       # number of quiesce instructions executed (Count)
system.ruby.network.average_flit_latency  3521.140096                       (Unspecified)
system.ruby.network.average_flit_network_latency  2815.472470                       (Unspecified)
system.ruby.network.average_flit_queueing_latency   705.667626                       (Unspecified)
system.ruby.network.average_flit_vnet_latency | 2980.875147                       | 2886.834896                       |        1500                       (Unspecified)
system.ruby.network.average_flit_vqueue_latency | 1131.727615                       |  589.432466                       |         500                       (Unspecified)
system.ruby.network.average_hops             0.344301                       (Unspecified)
system.ruby.network.average_packet_latency  3515.910650                       (Unspecified)
system.ruby.network.average_packet_network_latency  2714.542761                       (Unspecified)
system.ruby.network.average_packet_queueing_latency   801.367888                       (Unspecified)
system.ruby.network.average_packet_vnet_latency | 2421.336261                       | 3348.432544                       |        1500                       (Unspecified)
system.ruby.network.average_packet_vqueue_latency | 1164.205664                       |  586.323330                       |         500                       (Unspecified)
system.ruby.network.avg_link_utilization     0.023065                       (Unspecified)
system.ruby.network.avg_vc_load          |    0.002716     11.78%     11.78% |    0.001118      4.85%     16.62% |    0.000570      2.47%     19.09% |    0.000530      2.30%     21.39% |    0.010713     46.45%     67.84% |    0.002617     11.34%     79.18% |    0.001712      7.42%     86.60% |    0.001776      7.70%     94.31% |    0.000821      3.56%     97.86% |    0.000164      0.71%     98.58% |    0.000164      0.71%     99.29% |    0.000164      0.71%    100.00% (Unspecified)
system.ruby.network.avg_vc_load::total       0.023065                       (Unspecified)
system.ruby.network.ctrl_traffic_distribution.n0.n0        45876                       (Unspecified)
system.ruby.network.ctrl_traffic_distribution.n0.n1         2784                       (Unspecified)
system.ruby.network.ctrl_traffic_distribution.n0.n2         2817                       (Unspecified)
system.ruby.network.ctrl_traffic_distribution.n0.n3         2767                       (Unspecified)
system.ruby.network.ctrl_traffic_distribution.n1.n0            0                       (Unspecified)
system.ruby.network.ctrl_traffic_distribution.n1.n1            0                       (Unspecified)
system.ruby.network.ctrl_traffic_distribution.n1.n2            0                       (Unspecified)
system.ruby.network.ctrl_traffic_distribution.n1.n3            0                       (Unspecified)
system.ruby.network.ctrl_traffic_distribution.n2.n0            0                       (Unspecified)
system.ruby.network.ctrl_traffic_distribution.n2.n1            0                       (Unspecified)
system.ruby.network.ctrl_traffic_distribution.n2.n2            0                       (Unspecified)
system.ruby.network.ctrl_traffic_distribution.n2.n3            0                       (Unspecified)
system.ruby.network.ctrl_traffic_distribution.n3.n0            0                       (Unspecified)
system.ruby.network.ctrl_traffic_distribution.n3.n1            0                       (Unspecified)
system.ruby.network.ctrl_traffic_distribution.n3.n2            0                       (Unspecified)
system.ruby.network.ctrl_traffic_distribution.n3.n3            0                       (Unspecified)
system.ruby.network.data_traffic_distribution.n0.n0        33287                       (Unspecified)
system.ruby.network.data_traffic_distribution.n0.n1          780                       (Unspecified)
system.ruby.network.data_traffic_distribution.n0.n2          797                       (Unspecified)
system.ruby.network.data_traffic_distribution.n0.n3          770                       (Unspecified)
system.ruby.network.data_traffic_distribution.n1.n0         3564                       (Unspecified)
system.ruby.network.data_traffic_distribution.n1.n1            0                       (Unspecified)
system.ruby.network.data_traffic_distribution.n1.n2            0                       (Unspecified)
system.ruby.network.data_traffic_distribution.n1.n3            0                       (Unspecified)
system.ruby.network.data_traffic_distribution.n2.n0         3614                       (Unspecified)
system.ruby.network.data_traffic_distribution.n2.n1            0                       (Unspecified)
system.ruby.network.data_traffic_distribution.n2.n2            0                       (Unspecified)
system.ruby.network.data_traffic_distribution.n2.n3            0                       (Unspecified)
system.ruby.network.data_traffic_distribution.n3.n0         3537                       (Unspecified)
system.ruby.network.data_traffic_distribution.n3.n1            0                       (Unspecified)
system.ruby.network.data_traffic_distribution.n3.n2            0                       (Unspecified)
system.ruby.network.data_traffic_distribution.n3.n3            0                       (Unspecified)
system.ruby.network.ext_in_link_utilization       219157                       (Unspecified)
system.ruby.network.ext_out_link_utilization       219157                       (Unspecified)
system.ruby.network.flit_network_latency |   147213500                       |   447878000                       |    21939000                       (Unspecified)
system.ruby.network.flit_queueing_latency |    55891500                       |    91447500                       |     7313000                       (Unspecified)
system.ruby.network.flits_injected       |       49386     22.53%     22.53% |      155145     70.79%     93.33% |       14626      6.67%    100.00% (Unspecified)
system.ruby.network.flits_injected::total       219157                       (Unspecified)
system.ruby.network.flits_received       |       49386     22.53%     22.53% |      155145     70.79%     93.33% |       14626      6.67%    100.00% (Unspecified)
system.ruby.network.flits_received::total       219157                       (Unspecified)
system.ruby.network.int_link_utilization        75456                       (Unspecified)
system.ruby.network.packet_network_latency |    95928500                       |   155196500                       |    21939000                       (Unspecified)
system.ruby.network.packet_queueing_latency |    46123500                       |    27175500                       |     7313000                       (Unspecified)
system.ruby.network.packets_injected     |       39618     39.38%     39.38% |       46349     46.08%     85.46% |       14626     14.54%    100.00% (Unspecified)
system.ruby.network.packets_injected::total       100593                       (Unspecified)
system.ruby.network.packets_received     |       39618     39.38%     39.38% |       46349     46.08%     85.46% |       14626     14.54%    100.00% (Unspecified)
system.ruby.network.packets_received::total       100593                       (Unspecified)
system.ruby.network.routers0.buffer_reads       219157                       (Unspecified)
system.ruby.network.routers0.buffer_writes       219157                       (Unspecified)
system.ruby.network.routers0.crossbar_activity       219157                       (Unspecified)
system.ruby.network.routers0.sw_input_arbiter_activity       219165                       (Unspecified)
system.ruby.network.routers0.sw_output_arbiter_activity       219157                       (Unspecified)
system.ruby.network.routers1.buffer_reads        22997                       (Unspecified)
system.ruby.network.routers1.buffer_writes        22997                       (Unspecified)
system.ruby.network.routers1.crossbar_activity        22997                       (Unspecified)
system.ruby.network.routers1.sw_input_arbiter_activity        22997                       (Unspecified)
system.ruby.network.routers1.sw_output_arbiter_activity        22997                       (Unspecified)
system.ruby.network.routers2.buffer_reads        33693                       (Unspecified)
system.ruby.network.routers2.buffer_writes        33693                       (Unspecified)
system.ruby.network.routers2.crossbar_activity        33693                       (Unspecified)
system.ruby.network.routers2.sw_input_arbiter_activity        33695                       (Unspecified)
system.ruby.network.routers2.sw_output_arbiter_activity        33693                       (Unspecified)
system.ruby.network.routers3.buffer_reads        18766                       (Unspecified)
system.ruby.network.routers3.buffer_writes        18766                       (Unspecified)
system.ruby.network.routers3.crossbar_activity        18766                       (Unspecified)
system.ruby.network.routers3.sw_input_arbiter_activity        18766                       (Unspecified)
system.ruby.network.routers3.sw_output_arbiter_activity        18766                       (Unspecified)

---------- End Simulation Statistics   ----------
