
---------- Begin Simulation Statistics ----------
simSeconds                                   0.002431                       # Number of seconds simulated (Second)
simTicks                                   2431177500                       # Number of ticks simulated (Tick)
finalTick                                  2431177500                       # Number of ticks from beginning of simulation (restored from checkpoints and never reset) (Tick)
simFreq                                  1000000000000                       # The number of ticks per simulated second ((Tick/Second))
hostSeconds                                    229.16                       # Real time elapsed on the host (Second)
hostTickRate                                 10608866                       # The number of ticks simulated per host second (ticks/s) ((Tick/Second))
hostMemory                                    1578032                       # Number of bytes of host memory used (Byte)
simInsts                                     26282688                       # Number of instructions simulated (Count)
simOps                                       45949272                       # Number of ops (including micro ops) simulated (Count)
hostInstRate                                   114689                       # Simulator instruction rate (inst/s) ((Count/Second))
hostOpRate                                     200507                       # Simulator op (including micro ops) rate (op/s) ((Count/Second))
system.clk_domain.clock                          1000                       # Clock period in ticks (Tick)
system.cpu0.numCycles                          404746                       # Number of cpu cycles simulated (Cycle)
system.cpu0.cpi                              3.449461                       # CPI: cycles per instruction (core level) ((Cycle/Count))
system.cpu0.ipc                              0.289900                       # IPC: instructions per cycle (core level) ((Count/Cycle))
system.cpu0.numWorkItemsStarted                     0                       # Number of work items this cpu started (Count)
system.cpu0.numWorkItemsCompleted                   0                       # Number of work items this cpu completed (Count)
system.cpu0.instsAdded                         279280                       # Number of instructions added to the IQ (excludes non-spec) (Count)
system.cpu0.nonSpecInstsAdded                      10                       # Number of non-speculative instructions added to the IQ (Count)
system.cpu0.instsIssued                        257156                       # Number of instructions issued (Count)
system.cpu0.squashedInstsIssued                   237                       # Number of squashed instructions issued (Count)
system.cpu0.squashedInstsExamined               74508                       # Number of squashed instructions iterated over during squash; mainly for profiling (Count)
system.cpu0.squashedOperandsExamined           135478                       # Number of squashed operands that are examined and possibly removed from graph (Count)
system.cpu0.squashedNonSpecRemoved                  1                       # Number of squashed non-spec instructions that were removed (Count)
system.cpu0.numIssuedDist::samples             289396                       # Number of insts issued each cycle (Count)
system.cpu0.numIssuedDist::mean              0.888596                       # Number of insts issued each cycle (Count)
system.cpu0.numIssuedDist::stdev             1.914206                       # Number of insts issued each cycle (Count)
system.cpu0.numIssuedDist::underflows               0      0.00%      0.00% # Number of insts issued each cycle (Count)
system.cpu0.numIssuedDist::0                   222735     76.97%     76.97% # Number of insts issued each cycle (Count)
system.cpu0.numIssuedDist::1                    11267      3.89%     80.86% # Number of insts issued each cycle (Count)
system.cpu0.numIssuedDist::2                     9941      3.44%     84.29% # Number of insts issued each cycle (Count)
system.cpu0.numIssuedDist::3                    10233      3.54%     87.83% # Number of insts issued each cycle (Count)
system.cpu0.numIssuedDist::4                    10016      3.46%     91.29% # Number of insts issued each cycle (Count)
system.cpu0.numIssuedDist::5                     8890      3.07%     94.36% # Number of insts issued each cycle (Count)
system.cpu0.numIssuedDist::6                     7472      2.58%     96.94% # Number of insts issued each cycle (Count)
system.cpu0.numIssuedDist::7                     4774      1.65%     98.59% # Number of insts issued each cycle (Count)
system.cpu0.numIssuedDist::8                     4068      1.41%    100.00% # Number of insts issued each cycle (Count)
system.cpu0.numIssuedDist::overflows                0      0.00%    100.00% # Number of insts issued each cycle (Count)
system.cpu0.numIssuedDist::min_value                0                       # Number of insts issued each cycle (Count)
system.cpu0.numIssuedDist::max_value                8                       # Number of insts issued each cycle (Count)
system.cpu0.numIssuedDist::total               289396                       # Number of insts issued each cycle (Count)
system.cpu0.statFuBusy::No_OpClass                  0      0.00%      0.00% # attempts to use FU when none available (Count)
system.cpu0.statFuBusy::IntAlu                   2636     58.23%     58.23% # attempts to use FU when none available (Count)
system.cpu0.statFuBusy::IntMult                     0      0.00%     58.23% # attempts to use FU when none available (Count)
system.cpu0.statFuBusy::IntDiv                      0      0.00%     58.23% # attempts to use FU when none available (Count)
system.cpu0.statFuBusy::FloatAdd                    0      0.00%     58.23% # attempts to use FU when none available (Count)
system.cpu0.statFuBusy::FloatCmp                    0      0.00%     58.23% # attempts to use FU when none available (Count)
system.cpu0.statFuBusy::FloatCvt                    0      0.00%     58.23% # attempts to use FU when none available (Count)
system.cpu0.statFuBusy::FloatMult                   0      0.00%     58.23% # attempts to use FU when none available (Count)
system.cpu0.statFuBusy::FloatMultAcc                0      0.00%     58.23% # attempts to use FU when none available (Count)
system.cpu0.statFuBusy::FloatDiv                    0      0.00%     58.23% # attempts to use FU when none available (Count)
system.cpu0.statFuBusy::FloatMisc                   0      0.00%     58.23% # attempts to use FU when none available (Count)
system.cpu0.statFuBusy::FloatSqrt                   0      0.00%     58.23% # attempts to use FU when none available (Count)
system.cpu0.statFuBusy::SimdAdd                     0      0.00%     58.23% # attempts to use FU when none available (Count)
system.cpu0.statFuBusy::SimdAddAcc                  0      0.00%     58.23% # attempts to use FU when none available (Count)
system.cpu0.statFuBusy::SimdAlu                    14      0.31%     58.54% # attempts to use FU when none available (Count)
system.cpu0.statFuBusy::SimdCmp                     0      0.00%     58.54% # attempts to use FU when none available (Count)
system.cpu0.statFuBusy::SimdCvt                    22      0.49%     59.02% # attempts to use FU when none available (Count)
system.cpu0.statFuBusy::SimdMisc                    1      0.02%     59.05% # attempts to use FU when none available (Count)
system.cpu0.statFuBusy::SimdMult                    0      0.00%     59.05% # attempts to use FU when none available (Count)
system.cpu0.statFuBusy::SimdMultAcc                 0      0.00%     59.05% # attempts to use FU when none available (Count)
system.cpu0.statFuBusy::SimdMatMultAcc              0      0.00%     59.05% # attempts to use FU when none available (Count)
system.cpu0.statFuBusy::SimdShift                  11      0.24%     59.29% # attempts to use FU when none available (Count)
system.cpu0.statFuBusy::SimdShiftAcc                0      0.00%     59.29% # attempts to use FU when none available (Count)
system.cpu0.statFuBusy::SimdDiv                     0      0.00%     59.29% # attempts to use FU when none available (Count)
system.cpu0.statFuBusy::SimdSqrt                    0      0.00%     59.29% # attempts to use FU when none available (Count)
system.cpu0.statFuBusy::SimdFloatAdd                0      0.00%     59.29% # attempts to use FU when none available (Count)
system.cpu0.statFuBusy::SimdFloatAlu                0      0.00%     59.29% # attempts to use FU when none available (Count)
system.cpu0.statFuBusy::SimdFloatCmp                0      0.00%     59.29% # attempts to use FU when none available (Count)
system.cpu0.statFuBusy::SimdFloatCvt                0      0.00%     59.29% # attempts to use FU when none available (Count)
system.cpu0.statFuBusy::SimdFloatDiv                0      0.00%     59.29% # attempts to use FU when none available (Count)
system.cpu0.statFuBusy::SimdFloatMisc               0      0.00%     59.29% # attempts to use FU when none available (Count)
system.cpu0.statFuBusy::SimdFloatMult               0      0.00%     59.29% # attempts to use FU when none available (Count)
system.cpu0.statFuBusy::SimdFloatMultAcc            0      0.00%     59.29% # attempts to use FU when none available (Count)
system.cpu0.statFuBusy::SimdFloatMatMultAcc            0      0.00%     59.29% # attempts to use FU when none available (Count)
system.cpu0.statFuBusy::SimdFloatSqrt               0      0.00%     59.29% # attempts to use FU when none available (Count)
system.cpu0.statFuBusy::SimdReduceAdd               0      0.00%     59.29% # attempts to use FU when none available (Count)
system.cpu0.statFuBusy::SimdReduceAlu               0      0.00%     59.29% # attempts to use FU when none available (Count)
system.cpu0.statFuBusy::SimdReduceCmp               0      0.00%     59.29% # attempts to use FU when none available (Count)
system.cpu0.statFuBusy::SimdFloatReduceAdd            0      0.00%     59.29% # attempts to use FU when none available (Count)
system.cpu0.statFuBusy::SimdFloatReduceCmp            0      0.00%     59.29% # attempts to use FU when none available (Count)
system.cpu0.statFuBusy::SimdAes                     0      0.00%     59.29% # attempts to use FU when none available (Count)
system.cpu0.statFuBusy::SimdAesMix                  0      0.00%     59.29% # attempts to use FU when none available (Count)
system.cpu0.statFuBusy::SimdSha1Hash                0      0.00%     59.29% # attempts to use FU when none available (Count)
system.cpu0.statFuBusy::SimdSha1Hash2               0      0.00%     59.29% # attempts to use FU when none available (Count)
system.cpu0.statFuBusy::SimdSha256Hash              0      0.00%     59.29% # attempts to use FU when none available (Count)
system.cpu0.statFuBusy::SimdSha256Hash2             0      0.00%     59.29% # attempts to use FU when none available (Count)
system.cpu0.statFuBusy::SimdShaSigma2               0      0.00%     59.29% # attempts to use FU when none available (Count)
system.cpu0.statFuBusy::SimdShaSigma3               0      0.00%     59.29% # attempts to use FU when none available (Count)
system.cpu0.statFuBusy::SimdPredAlu                 0      0.00%     59.29% # attempts to use FU when none available (Count)
system.cpu0.statFuBusy::Matrix                      0      0.00%     59.29% # attempts to use FU when none available (Count)
system.cpu0.statFuBusy::MatrixMov                   0      0.00%     59.29% # attempts to use FU when none available (Count)
system.cpu0.statFuBusy::MatrixOP                    0      0.00%     59.29% # attempts to use FU when none available (Count)
system.cpu0.statFuBusy::MemRead                  1532     33.84%     93.13% # attempts to use FU when none available (Count)
system.cpu0.statFuBusy::MemWrite                  269      5.94%     99.07% # attempts to use FU when none available (Count)
system.cpu0.statFuBusy::FloatMemRead               23      0.51%     99.58% # attempts to use FU when none available (Count)
system.cpu0.statFuBusy::FloatMemWrite              19      0.42%    100.00% # attempts to use FU when none available (Count)
system.cpu0.statFuBusy::IprAccess                   0      0.00%    100.00% # attempts to use FU when none available (Count)
system.cpu0.statFuBusy::InstPrefetch                0      0.00%    100.00% # attempts to use FU when none available (Count)
system.cpu0.statFuBusy::VectorUnitStrideLoad            0      0.00%    100.00% # attempts to use FU when none available (Count)
system.cpu0.statFuBusy::VectorUnitStrideStore            0      0.00%    100.00% # attempts to use FU when none available (Count)
system.cpu0.statFuBusy::VectorUnitStrideMaskLoad            0      0.00%    100.00% # attempts to use FU when none available (Count)
system.cpu0.statFuBusy::VectorUnitStrideMaskStore            0      0.00%    100.00% # attempts to use FU when none available (Count)
system.cpu0.statFuBusy::VectorStridedLoad            0      0.00%    100.00% # attempts to use FU when none available (Count)
system.cpu0.statFuBusy::VectorStridedStore            0      0.00%    100.00% # attempts to use FU when none available (Count)
system.cpu0.statFuBusy::VectorIndexedLoad            0      0.00%    100.00% # attempts to use FU when none available (Count)
system.cpu0.statFuBusy::VectorIndexedStore            0      0.00%    100.00% # attempts to use FU when none available (Count)
system.cpu0.statFuBusy::VectorUnitStrideFaultOnlyFirstLoad            0      0.00%    100.00% # attempts to use FU when none available (Count)
system.cpu0.statFuBusy::VectorWholeRegisterLoad            0      0.00%    100.00% # attempts to use FU when none available (Count)
system.cpu0.statFuBusy::VectorWholeRegisterStore            0      0.00%    100.00% # attempts to use FU when none available (Count)
system.cpu0.statFuBusy::VectorIntegerArith            0      0.00%    100.00% # attempts to use FU when none available (Count)
system.cpu0.statFuBusy::VectorFloatArith            0      0.00%    100.00% # attempts to use FU when none available (Count)
system.cpu0.statFuBusy::VectorFloatConvert            0      0.00%    100.00% # attempts to use FU when none available (Count)
system.cpu0.statFuBusy::VectorIntegerReduce            0      0.00%    100.00% # attempts to use FU when none available (Count)
system.cpu0.statFuBusy::VectorFloatReduce            0      0.00%    100.00% # attempts to use FU when none available (Count)
system.cpu0.statFuBusy::VectorMisc                  0      0.00%    100.00% # attempts to use FU when none available (Count)
system.cpu0.statFuBusy::VectorIntegerExtension            0      0.00%    100.00% # attempts to use FU when none available (Count)
system.cpu0.statFuBusy::VectorConfig                0      0.00%    100.00% # attempts to use FU when none available (Count)
system.cpu0.statIssuedInstType_0::No_OpClass         2002      0.78%      0.78% # Number of instructions issued per FU type, per thread (Count)
system.cpu0.statIssuedInstType_0::IntAlu       180023     70.01%     70.78% # Number of instructions issued per FU type, per thread (Count)
system.cpu0.statIssuedInstType_0::IntMult           21      0.01%     70.79% # Number of instructions issued per FU type, per thread (Count)
system.cpu0.statIssuedInstType_0::IntDiv         1305      0.51%     71.30% # Number of instructions issued per FU type, per thread (Count)
system.cpu0.statIssuedInstType_0::FloatAdd         5711      2.22%     73.52% # Number of instructions issued per FU type, per thread (Count)
system.cpu0.statIssuedInstType_0::FloatCmp            0      0.00%     73.52% # Number of instructions issued per FU type, per thread (Count)
system.cpu0.statIssuedInstType_0::FloatCvt           16      0.01%     73.53% # Number of instructions issued per FU type, per thread (Count)
system.cpu0.statIssuedInstType_0::FloatMult            0      0.00%     73.53% # Number of instructions issued per FU type, per thread (Count)
system.cpu0.statIssuedInstType_0::FloatMultAcc            0      0.00%     73.53% # Number of instructions issued per FU type, per thread (Count)
system.cpu0.statIssuedInstType_0::FloatDiv            0      0.00%     73.53% # Number of instructions issued per FU type, per thread (Count)
system.cpu0.statIssuedInstType_0::FloatMisc            0      0.00%     73.53% # Number of instructions issued per FU type, per thread (Count)
system.cpu0.statIssuedInstType_0::FloatSqrt            0      0.00%     73.53% # Number of instructions issued per FU type, per thread (Count)
system.cpu0.statIssuedInstType_0::SimdAdd          371      0.14%     73.67% # Number of instructions issued per FU type, per thread (Count)
system.cpu0.statIssuedInstType_0::SimdAddAcc            0      0.00%     73.67% # Number of instructions issued per FU type, per thread (Count)
system.cpu0.statIssuedInstType_0::SimdAlu         2342      0.91%     74.58% # Number of instructions issued per FU type, per thread (Count)
system.cpu0.statIssuedInstType_0::SimdCmp            0      0.00%     74.58% # Number of instructions issued per FU type, per thread (Count)
system.cpu0.statIssuedInstType_0::SimdCvt          911      0.35%     74.94% # Number of instructions issued per FU type, per thread (Count)
system.cpu0.statIssuedInstType_0::SimdMisc         1324      0.51%     75.45% # Number of instructions issued per FU type, per thread (Count)
system.cpu0.statIssuedInstType_0::SimdMult            0      0.00%     75.45% # Number of instructions issued per FU type, per thread (Count)
system.cpu0.statIssuedInstType_0::SimdMultAcc            0      0.00%     75.45% # Number of instructions issued per FU type, per thread (Count)
system.cpu0.statIssuedInstType_0::SimdMatMultAcc            0      0.00%     75.45% # Number of instructions issued per FU type, per thread (Count)
system.cpu0.statIssuedInstType_0::SimdShift          217      0.08%     75.54% # Number of instructions issued per FU type, per thread (Count)
system.cpu0.statIssuedInstType_0::SimdShiftAcc            0      0.00%     75.54% # Number of instructions issued per FU type, per thread (Count)
system.cpu0.statIssuedInstType_0::SimdDiv            0      0.00%     75.54% # Number of instructions issued per FU type, per thread (Count)
system.cpu0.statIssuedInstType_0::SimdSqrt            0      0.00%     75.54% # Number of instructions issued per FU type, per thread (Count)
system.cpu0.statIssuedInstType_0::SimdFloatAdd         1026      0.40%     75.93% # Number of instructions issued per FU type, per thread (Count)
system.cpu0.statIssuedInstType_0::SimdFloatAlu            0      0.00%     75.93% # Number of instructions issued per FU type, per thread (Count)
system.cpu0.statIssuedInstType_0::SimdFloatCmp            0      0.00%     75.93% # Number of instructions issued per FU type, per thread (Count)
system.cpu0.statIssuedInstType_0::SimdFloatCvt          578      0.22%     76.16% # Number of instructions issued per FU type, per thread (Count)
system.cpu0.statIssuedInstType_0::SimdFloatDiv            0      0.00%     76.16% # Number of instructions issued per FU type, per thread (Count)
system.cpu0.statIssuedInstType_0::SimdFloatMisc            0      0.00%     76.16% # Number of instructions issued per FU type, per thread (Count)
system.cpu0.statIssuedInstType_0::SimdFloatMult         1025      0.40%     76.56% # Number of instructions issued per FU type, per thread (Count)
system.cpu0.statIssuedInstType_0::SimdFloatMultAcc            0      0.00%     76.56% # Number of instructions issued per FU type, per thread (Count)
system.cpu0.statIssuedInstType_0::SimdFloatMatMultAcc            0      0.00%     76.56% # Number of instructions issued per FU type, per thread (Count)
system.cpu0.statIssuedInstType_0::SimdFloatSqrt            0      0.00%     76.56% # Number of instructions issued per FU type, per thread (Count)
system.cpu0.statIssuedInstType_0::SimdReduceAdd            0      0.00%     76.56% # Number of instructions issued per FU type, per thread (Count)
system.cpu0.statIssuedInstType_0::SimdReduceAlu            0      0.00%     76.56% # Number of instructions issued per FU type, per thread (Count)
system.cpu0.statIssuedInstType_0::SimdReduceCmp            0      0.00%     76.56% # Number of instructions issued per FU type, per thread (Count)
system.cpu0.statIssuedInstType_0::SimdFloatReduceAdd            0      0.00%     76.56% # Number of instructions issued per FU type, per thread (Count)
system.cpu0.statIssuedInstType_0::SimdFloatReduceCmp            0      0.00%     76.56% # Number of instructions issued per FU type, per thread (Count)
system.cpu0.statIssuedInstType_0::SimdAes            0      0.00%     76.56% # Number of instructions issued per FU type, per thread (Count)
system.cpu0.statIssuedInstType_0::SimdAesMix            0      0.00%     76.56% # Number of instructions issued per FU type, per thread (Count)
system.cpu0.statIssuedInstType_0::SimdSha1Hash            0      0.00%     76.56% # Number of instructions issued per FU type, per thread (Count)
system.cpu0.statIssuedInstType_0::SimdSha1Hash2            0      0.00%     76.56% # Number of instructions issued per FU type, per thread (Count)
system.cpu0.statIssuedInstType_0::SimdSha256Hash            0      0.00%     76.56% # Number of instructions issued per FU type, per thread (Count)
system.cpu0.statIssuedInstType_0::SimdSha256Hash2            0      0.00%     76.56% # Number of instructions issued per FU type, per thread (Count)
system.cpu0.statIssuedInstType_0::SimdShaSigma2            0      0.00%     76.56% # Number of instructions issued per FU type, per thread (Count)
system.cpu0.statIssuedInstType_0::SimdShaSigma3            0      0.00%     76.56% # Number of instructions issued per FU type, per thread (Count)
system.cpu0.statIssuedInstType_0::SimdPredAlu            0      0.00%     76.56% # Number of instructions issued per FU type, per thread (Count)
system.cpu0.statIssuedInstType_0::Matrix            0      0.00%     76.56% # Number of instructions issued per FU type, per thread (Count)
system.cpu0.statIssuedInstType_0::MatrixMov            0      0.00%     76.56% # Number of instructions issued per FU type, per thread (Count)
system.cpu0.statIssuedInstType_0::MatrixOP            0      0.00%     76.56% # Number of instructions issued per FU type, per thread (Count)
system.cpu0.statIssuedInstType_0::MemRead        40175     15.62%     92.18% # Number of instructions issued per FU type, per thread (Count)
system.cpu0.statIssuedInstType_0::MemWrite        13861      5.39%     97.57% # Number of instructions issued per FU type, per thread (Count)
system.cpu0.statIssuedInstType_0::FloatMemRead         4101      1.59%     99.17% # Number of instructions issued per FU type, per thread (Count)
system.cpu0.statIssuedInstType_0::FloatMemWrite         2147      0.83%    100.00% # Number of instructions issued per FU type, per thread (Count)
system.cpu0.statIssuedInstType_0::IprAccess            0      0.00%    100.00% # Number of instructions issued per FU type, per thread (Count)
system.cpu0.statIssuedInstType_0::InstPrefetch            0      0.00%    100.00% # Number of instructions issued per FU type, per thread (Count)
system.cpu0.statIssuedInstType_0::VectorUnitStrideLoad            0      0.00%    100.00% # Number of instructions issued per FU type, per thread (Count)
system.cpu0.statIssuedInstType_0::VectorUnitStrideStore            0      0.00%    100.00% # Number of instructions issued per FU type, per thread (Count)
system.cpu0.statIssuedInstType_0::VectorUnitStrideMaskLoad            0      0.00%    100.00% # Number of instructions issued per FU type, per thread (Count)
system.cpu0.statIssuedInstType_0::VectorUnitStrideMaskStore            0      0.00%    100.00% # Number of instructions issued per FU type, per thread (Count)
system.cpu0.statIssuedInstType_0::VectorStridedLoad            0      0.00%    100.00% # Number of instructions issued per FU type, per thread (Count)
system.cpu0.statIssuedInstType_0::VectorStridedStore            0      0.00%    100.00% # Number of instructions issued per FU type, per thread (Count)
system.cpu0.statIssuedInstType_0::VectorIndexedLoad            0      0.00%    100.00% # Number of instructions issued per FU type, per thread (Count)
system.cpu0.statIssuedInstType_0::VectorIndexedStore            0      0.00%    100.00% # Number of instructions issued per FU type, per thread (Count)
system.cpu0.statIssuedInstType_0::VectorUnitStrideFaultOnlyFirstLoad            0      0.00%    100.00% # Number of instructions issued per FU type, per thread (Count)
system.cpu0.statIssuedInstType_0::VectorWholeRegisterLoad            0      0.00%    100.00% # Number of instructions issued per FU type, per thread (Count)
system.cpu0.statIssuedInstType_0::VectorWholeRegisterStore            0      0.00%    100.00% # Number of instructions issued per FU type, per thread (Count)
system.cpu0.statIssuedInstType_0::VectorIntegerArith            0      0.00%    100.00% # Number of instructions issued per FU type, per thread (Count)
system.cpu0.statIssuedInstType_0::VectorFloatArith            0      0.00%    100.00% # Number of instructions issued per FU type, per thread (Count)
system.cpu0.statIssuedInstType_0::VectorFloatConvert            0      0.00%    100.00% # Number of instructions issued per FU type, per thread (Count)
system.cpu0.statIssuedInstType_0::VectorIntegerReduce            0      0.00%    100.00% # Number of instructions issued per FU type, per thread (Count)
system.cpu0.statIssuedInstType_0::VectorFloatReduce            0      0.00%    100.00% # Number of instructions issued per FU type, per thread (Count)
system.cpu0.statIssuedInstType_0::VectorMisc            0      0.00%    100.00% # Number of instructions issued per FU type, per thread (Count)
system.cpu0.statIssuedInstType_0::VectorIntegerExtension            0      0.00%    100.00% # Number of instructions issued per FU type, per thread (Count)
system.cpu0.statIssuedInstType_0::VectorConfig            0      0.00%    100.00% # Number of instructions issued per FU type, per thread (Count)
system.cpu0.statIssuedInstType_0::total        257156                       # Number of instructions issued per FU type, per thread (Count)
system.cpu0.issueRate                        0.635352                       # Inst issue rate ((Count/Cycle))
system.cpu0.fuBusy                               4527                       # FU busy when requested (Count)
system.cpu0.fuBusyRate                       0.017604                       # FU busy rate (busy events/executed inst) ((Count/Count))
system.cpu0.intInstQueueReads                  768435                       # Number of integer instruction queue reads (Count)
system.cpu0.intInstQueueWrites                 327990                       # Number of integer instruction queue writes (Count)
system.cpu0.intInstQueueWakeupAccesses         230426                       # Number of integer instruction queue wakeup accesses (Count)
system.cpu0.fpInstQueueReads                    40037                       # Number of floating instruction queue reads (Count)
system.cpu0.fpInstQueueWrites                   25894                       # Number of floating instruction queue writes (Count)
system.cpu0.fpInstQueueWakeupAccesses           19510                       # Number of floating instruction queue wakeup accesses (Count)
system.cpu0.vecInstQueueReads                       0                       # Number of vector instruction queue reads (Count)
system.cpu0.vecInstQueueWrites                      0                       # Number of vector instruction queue writes (Count)
system.cpu0.vecInstQueueWakeupAccesses              0                       # Number of vector instruction queue wakeup accesses (Count)
system.cpu0.intAluAccesses                     239637                       # Number of integer alu accesses (Count)
system.cpu0.fpAluAccesses                       20044                       # Number of floating point alu accesses (Count)
system.cpu0.vecAluAccesses                          0                       # Number of vector alu accesses (Count)
system.cpu0.numSquashedInsts                     2974                       # Number of squashed instructions skipped in execute (Count)
system.cpu0.numSwp                                  0                       # Number of swp insts executed (Count)
system.cpu0.timesIdled                            809                       # Number of times that the entire CPU went into an idle state and unscheduled itself (Count)
system.cpu0.idleCycles                         115350                       # Total number of cycles that the CPU has spent unscheduled due to idling (Cycle)
system.cpu0.MemDepUnit__0.insertedLoads         44600                       # Number of loads inserted to the mem dependence unit. (Count)
system.cpu0.MemDepUnit__0.insertedStores        17624                       # Number of stores inserted to the mem dependence unit. (Count)
system.cpu0.MemDepUnit__0.conflictingLoads         6334                       # Number of conflicting loads. (Count)
system.cpu0.MemDepUnit__0.conflictingStores         1683                       # Number of conflicting stores. (Count)
system.cpu0.MemDepUnit__1.insertedLoads             0                       # Number of loads inserted to the mem dependence unit. (Count)
system.cpu0.MemDepUnit__1.insertedStores            0                       # Number of stores inserted to the mem dependence unit. (Count)
system.cpu0.MemDepUnit__1.conflictingLoads            0                       # Number of conflicting loads. (Count)
system.cpu0.MemDepUnit__1.conflictingStores            0                       # Number of conflicting stores. (Count)
system.cpu0.MemDepUnit__2.insertedLoads             0                       # Number of loads inserted to the mem dependence unit. (Count)
system.cpu0.MemDepUnit__2.insertedStores            0                       # Number of stores inserted to the mem dependence unit. (Count)
system.cpu0.MemDepUnit__2.conflictingLoads            0                       # Number of conflicting loads. (Count)
system.cpu0.MemDepUnit__2.conflictingStores            0                       # Number of conflicting stores. (Count)
system.cpu0.MemDepUnit__3.insertedLoads             0                       # Number of loads inserted to the mem dependence unit. (Count)
system.cpu0.MemDepUnit__3.insertedStores            0                       # Number of stores inserted to the mem dependence unit. (Count)
system.cpu0.MemDepUnit__3.conflictingLoads            0                       # Number of conflicting loads. (Count)
system.cpu0.MemDepUnit__3.conflictingStores            0                       # Number of conflicting stores. (Count)
system.cpu0.branchPred.lookups_0::NoBranch          184      0.65%      0.65% # Number of BP lookups (Count)
system.cpu0.branchPred.lookups_0::Return         1034      3.67%      4.33% # Number of BP lookups (Count)
system.cpu0.branchPred.lookups_0::CallDirect         1213      4.31%      8.64% # Number of BP lookups (Count)
system.cpu0.branchPred.lookups_0::CallIndirect          232      0.82%      9.46% # Number of BP lookups (Count)
system.cpu0.branchPred.lookups_0::DirectCond        23471     83.39%     92.85% # Number of BP lookups (Count)
system.cpu0.branchPred.lookups_0::DirectUncond         1411      5.01%     97.87% # Number of BP lookups (Count)
system.cpu0.branchPred.lookups_0::IndirectCond            0      0.00%     97.87% # Number of BP lookups (Count)
system.cpu0.branchPred.lookups_0::IndirectUncond          600      2.13%    100.00% # Number of BP lookups (Count)
system.cpu0.branchPred.lookups_0::total         28145                       # Number of BP lookups (Count)
system.cpu0.branchPred.squashes_0::NoBranch          172      1.60%      1.60% # Number of branches that got squashed (completely removed) as an earlier branch was mispredicted. (Count)
system.cpu0.branchPred.squashes_0::Return          414      3.86%      5.46% # Number of branches that got squashed (completely removed) as an earlier branch was mispredicted. (Count)
system.cpu0.branchPred.squashes_0::CallDirect          653      6.09%     11.55% # Number of branches that got squashed (completely removed) as an earlier branch was mispredicted. (Count)
system.cpu0.branchPred.squashes_0::CallIndirect          168      1.57%     13.12% # Number of branches that got squashed (completely removed) as an earlier branch was mispredicted. (Count)
system.cpu0.branchPred.squashes_0::DirectCond         8263     77.06%     90.18% # Number of branches that got squashed (completely removed) as an earlier branch was mispredicted. (Count)
system.cpu0.branchPred.squashes_0::DirectUncond          644      6.01%     96.19% # Number of branches that got squashed (completely removed) as an earlier branch was mispredicted. (Count)
system.cpu0.branchPred.squashes_0::IndirectCond            0      0.00%     96.19% # Number of branches that got squashed (completely removed) as an earlier branch was mispredicted. (Count)
system.cpu0.branchPred.squashes_0::IndirectUncond          409      3.81%    100.00% # Number of branches that got squashed (completely removed) as an earlier branch was mispredicted. (Count)
system.cpu0.branchPred.squashes_0::total        10723                       # Number of branches that got squashed (completely removed) as an earlier branch was mispredicted. (Count)
system.cpu0.branchPred.corrected_0::NoBranch           43      2.18%      2.18% # Number of branches that got corrected but not yet commited. Branches get corrected by decode or after execute. Also a branch misprediction can be detected out-of-order. Therefore, a corrected branch might not end up beeing committed in case an even earlier branch was mispredicted (Count)
system.cpu0.branchPred.corrected_0::Return            1      0.05%      2.23% # Number of branches that got corrected but not yet commited. Branches get corrected by decode or after execute. Also a branch misprediction can be detected out-of-order. Therefore, a corrected branch might not end up beeing committed in case an even earlier branch was mispredicted (Count)
system.cpu0.branchPred.corrected_0::CallDirect          201     10.20%     12.43% # Number of branches that got corrected but not yet commited. Branches get corrected by decode or after execute. Also a branch misprediction can be detected out-of-order. Therefore, a corrected branch might not end up beeing committed in case an even earlier branch was mispredicted (Count)
system.cpu0.branchPred.corrected_0::CallIndirect           65      3.30%     15.73% # Number of branches that got corrected but not yet commited. Branches get corrected by decode or after execute. Also a branch misprediction can be detected out-of-order. Therefore, a corrected branch might not end up beeing committed in case an even earlier branch was mispredicted (Count)
system.cpu0.branchPred.corrected_0::DirectCond         1319     66.92%     82.65% # Number of branches that got corrected but not yet commited. Branches get corrected by decode or after execute. Also a branch misprediction can be detected out-of-order. Therefore, a corrected branch might not end up beeing committed in case an even earlier branch was mispredicted (Count)
system.cpu0.branchPred.corrected_0::DirectUncond          213     10.81%     93.46% # Number of branches that got corrected but not yet commited. Branches get corrected by decode or after execute. Also a branch misprediction can be detected out-of-order. Therefore, a corrected branch might not end up beeing committed in case an even earlier branch was mispredicted (Count)
system.cpu0.branchPred.corrected_0::IndirectCond            0      0.00%     93.46% # Number of branches that got corrected but not yet commited. Branches get corrected by decode or after execute. Also a branch misprediction can be detected out-of-order. Therefore, a corrected branch might not end up beeing committed in case an even earlier branch was mispredicted (Count)
system.cpu0.branchPred.corrected_0::IndirectUncond          129      6.54%    100.00% # Number of branches that got corrected but not yet commited. Branches get corrected by decode or after execute. Also a branch misprediction can be detected out-of-order. Therefore, a corrected branch might not end up beeing committed in case an even earlier branch was mispredicted (Count)
system.cpu0.branchPred.corrected_0::total         1971                       # Number of branches that got corrected but not yet commited. Branches get corrected by decode or after execute. Also a branch misprediction can be detected out-of-order. Therefore, a corrected branch might not end up beeing committed in case an even earlier branch was mispredicted (Count)
system.cpu0.branchPred.earlyResteers_0::NoBranch            0                       # Number of branches that got redirected after decode. (Count)
system.cpu0.branchPred.earlyResteers_0::Return            0                       # Number of branches that got redirected after decode. (Count)
system.cpu0.branchPred.earlyResteers_0::CallDirect            0                       # Number of branches that got redirected after decode. (Count)
system.cpu0.branchPred.earlyResteers_0::CallIndirect            0                       # Number of branches that got redirected after decode. (Count)
system.cpu0.branchPred.earlyResteers_0::DirectCond            0                       # Number of branches that got redirected after decode. (Count)
system.cpu0.branchPred.earlyResteers_0::DirectUncond            0                       # Number of branches that got redirected after decode. (Count)
system.cpu0.branchPred.earlyResteers_0::IndirectCond            0                       # Number of branches that got redirected after decode. (Count)
system.cpu0.branchPred.earlyResteers_0::IndirectUncond            0                       # Number of branches that got redirected after decode. (Count)
system.cpu0.branchPred.earlyResteers_0::total            0                       # Number of branches that got redirected after decode. (Count)
system.cpu0.branchPred.committed_0::NoBranch           12      0.07%      0.07% # Number of branches finally committed  (Count)
system.cpu0.branchPred.committed_0::Return          620      3.56%      3.63% # Number of branches finally committed  (Count)
system.cpu0.branchPred.committed_0::CallDirect          560      3.21%      6.84% # Number of branches finally committed  (Count)
system.cpu0.branchPred.committed_0::CallIndirect           64      0.37%      7.21% # Number of branches finally committed  (Count)
system.cpu0.branchPred.committed_0::DirectCond        15208     87.29%     94.50% # Number of branches finally committed  (Count)
system.cpu0.branchPred.committed_0::DirectUncond          767      4.40%     98.90% # Number of branches finally committed  (Count)
system.cpu0.branchPred.committed_0::IndirectCond            0      0.00%     98.90% # Number of branches finally committed  (Count)
system.cpu0.branchPred.committed_0::IndirectUncond          191      1.10%    100.00% # Number of branches finally committed  (Count)
system.cpu0.branchPred.committed_0::total        17422                       # Number of branches finally committed  (Count)
system.cpu0.branchPred.mispredicted_0::NoBranch           12      0.76%      0.76% # Number of committed branches that were mispredicted. (Count)
system.cpu0.branchPred.mispredicted_0::Return            0      0.00%      0.76% # Number of committed branches that were mispredicted. (Count)
system.cpu0.branchPred.mispredicted_0::CallDirect          122      7.71%      8.47% # Number of committed branches that were mispredicted. (Count)
system.cpu0.branchPred.mispredicted_0::CallIndirect           63      3.98%     12.45% # Number of committed branches that were mispredicted. (Count)
system.cpu0.branchPred.mispredicted_0::DirectCond         1166     73.70%     86.16% # Number of committed branches that were mispredicted. (Count)
system.cpu0.branchPred.mispredicted_0::DirectUncond          108      6.83%     92.98% # Number of committed branches that were mispredicted. (Count)
system.cpu0.branchPred.mispredicted_0::IndirectCond            0      0.00%     92.98% # Number of committed branches that were mispredicted. (Count)
system.cpu0.branchPred.mispredicted_0::IndirectUncond          111      7.02%    100.00% # Number of committed branches that were mispredicted. (Count)
system.cpu0.branchPred.mispredicted_0::total         1582                       # Number of committed branches that were mispredicted. (Count)
system.cpu0.branchPred.targetProvider_0::NoTarget        16223     57.64%     57.64% # The component providing the target for taken branches (Count)
system.cpu0.branchPred.targetProvider_0::BTB        10778     38.29%     95.94% # The component providing the target for taken branches (Count)
system.cpu0.branchPred.targetProvider_0::RAS         1028      3.65%     99.59% # The component providing the target for taken branches (Count)
system.cpu0.branchPred.targetProvider_0::Indirect          116      0.41%    100.00% # The component providing the target for taken branches (Count)
system.cpu0.branchPred.targetProvider_0::total        28145                       # The component providing the target for taken branches (Count)
system.cpu0.branchPred.targetWrong_0::NoBranch         1532     83.58%     83.58% # Number of branches where the target was incorrect or not available at prediction time. (Count)
system.cpu0.branchPred.targetWrong_0::Return          295     16.09%     99.67% # Number of branches where the target was incorrect or not available at prediction time. (Count)
system.cpu0.branchPred.targetWrong_0::CallDirect            1      0.05%     99.73% # Number of branches where the target was incorrect or not available at prediction time. (Count)
system.cpu0.branchPred.targetWrong_0::CallIndirect            5      0.27%    100.00% # Number of branches where the target was incorrect or not available at prediction time. (Count)
system.cpu0.branchPred.targetWrong_0::DirectCond            0      0.00%    100.00% # Number of branches where the target was incorrect or not available at prediction time. (Count)
system.cpu0.branchPred.targetWrong_0::DirectUncond            0      0.00%    100.00% # Number of branches where the target was incorrect or not available at prediction time. (Count)
system.cpu0.branchPred.targetWrong_0::IndirectCond            0      0.00%    100.00% # Number of branches where the target was incorrect or not available at prediction time. (Count)
system.cpu0.branchPred.targetWrong_0::IndirectUncond            0      0.00%    100.00% # Number of branches where the target was incorrect or not available at prediction time. (Count)
system.cpu0.branchPred.targetWrong_0::total         1833                       # Number of branches where the target was incorrect or not available at prediction time. (Count)
system.cpu0.branchPred.condPredicted            23655                       # Number of conditional branches predicted (Count)
system.cpu0.branchPred.condPredictedTaken         9713                       # Number of conditional branches predicted as taken (Count)
system.cpu0.branchPred.condIncorrect             1971                       # Number of conditional branches incorrect (Count)
system.cpu0.branchPred.predTakenBTBMiss           558                       # Number of branches predicted taken but missed in BTB (Count)
system.cpu0.branchPred.NotTakenMispredicted         1660                       # Number branches predicted 'not taken' but turned out to be taken (Count)
system.cpu0.branchPred.TakenMispredicted          311                       # Number branches predicted taken but are actually not taken (Count)
system.cpu0.branchPred.BTBLookups               28145                       # Number of BTB lookups (Count)
system.cpu0.branchPred.BTBUpdates                1422                       # Number of BTB updates (Count)
system.cpu0.branchPred.BTBHits                  14114                       # Number of BTB hits (Count)
system.cpu0.branchPred.BTBHitRatio           0.501475                       # BTB Hit Ratio (Ratio)
system.cpu0.branchPred.BTBMispredicted            936                       # Number BTB mispredictions. No target found or target wrong (Count)
system.cpu0.branchPred.indirectLookups            832                       # Number of indirect predictor lookups. (Count)
system.cpu0.branchPred.indirectHits               116                       # Number of indirect target hits. (Count)
system.cpu0.branchPred.indirectMisses             716                       # Number of indirect misses. (Count)
system.cpu0.branchPred.indirectMispredicted            0                       # Number of mispredicted indirect branches. (Count)
system.cpu0.branchPred.btb.lookups::NoBranch          184      0.65%      0.65% # Number of BTB lookups (Count)
system.cpu0.branchPred.btb.lookups::Return         1034      3.67%      4.33% # Number of BTB lookups (Count)
system.cpu0.branchPred.btb.lookups::CallDirect         1213      4.31%      8.64% # Number of BTB lookups (Count)
system.cpu0.branchPred.btb.lookups::CallIndirect          232      0.82%      9.46% # Number of BTB lookups (Count)
system.cpu0.branchPred.btb.lookups::DirectCond        23471     83.39%     92.85% # Number of BTB lookups (Count)
system.cpu0.branchPred.btb.lookups::DirectUncond         1411      5.01%     97.87% # Number of BTB lookups (Count)
system.cpu0.branchPred.btb.lookups::IndirectCond            0      0.00%     97.87% # Number of BTB lookups (Count)
system.cpu0.branchPred.btb.lookups::IndirectUncond          600      2.13%    100.00% # Number of BTB lookups (Count)
system.cpu0.branchPred.btb.lookups::total        28145                       # Number of BTB lookups (Count)
system.cpu0.branchPred.btb.misses::NoBranch           59      0.42%      0.42% # Number of BTB misses (Count)
system.cpu0.branchPred.btb.misses::Return         1031      7.35%      7.77% # Number of BTB misses (Count)
system.cpu0.branchPred.btb.misses::CallDirect          250      1.78%      9.55% # Number of BTB misses (Count)
system.cpu0.branchPred.btb.misses::CallIndirect          230      1.64%     11.19% # Number of BTB misses (Count)
system.cpu0.branchPred.btb.misses::DirectCond        11580     82.53%     93.72% # Number of BTB misses (Count)
system.cpu0.branchPred.btb.misses::DirectUncond          281      2.00%     95.72% # Number of BTB misses (Count)
system.cpu0.branchPred.btb.misses::IndirectCond            0      0.00%     95.72% # Number of BTB misses (Count)
system.cpu0.branchPred.btb.misses::IndirectUncond          600      4.28%    100.00% # Number of BTB misses (Count)
system.cpu0.branchPred.btb.misses::total        14031                       # Number of BTB misses (Count)
system.cpu0.branchPred.btb.updates::NoBranch            0      0.00%      0.00% # Number of BTB updates (Count)
system.cpu0.branchPred.btb.updates::Return            0      0.00%      0.00% # Number of BTB updates (Count)
system.cpu0.branchPred.btb.updates::CallDirect          201     14.14%     14.14% # Number of BTB updates (Count)
system.cpu0.branchPred.btb.updates::CallIndirect            0      0.00%     14.14% # Number of BTB updates (Count)
system.cpu0.branchPred.btb.updates::DirectCond         1008     70.89%     85.02% # Number of BTB updates (Count)
system.cpu0.branchPred.btb.updates::DirectUncond          213     14.98%    100.00% # Number of BTB updates (Count)
system.cpu0.branchPred.btb.updates::IndirectCond            0      0.00%    100.00% # Number of BTB updates (Count)
system.cpu0.branchPred.btb.updates::IndirectUncond            0      0.00%    100.00% # Number of BTB updates (Count)
system.cpu0.branchPred.btb.updates::total         1422                       # Number of BTB updates (Count)
system.cpu0.branchPred.btb.mispredict::NoBranch            0      0.00%      0.00% # Number of BTB mispredictions. No target found or target wrong. (Count)
system.cpu0.branchPred.btb.mispredict::Return            0      0.00%      0.00% # Number of BTB mispredictions. No target found or target wrong. (Count)
system.cpu0.branchPred.btb.mispredict::CallDirect          201     14.14%     14.14% # Number of BTB mispredictions. No target found or target wrong. (Count)
system.cpu0.branchPred.btb.mispredict::CallIndirect            0      0.00%     14.14% # Number of BTB mispredictions. No target found or target wrong. (Count)
system.cpu0.branchPred.btb.mispredict::DirectCond         1008     70.89%     85.02% # Number of BTB mispredictions. No target found or target wrong. (Count)
system.cpu0.branchPred.btb.mispredict::DirectUncond          213     14.98%    100.00% # Number of BTB mispredictions. No target found or target wrong. (Count)
system.cpu0.branchPred.btb.mispredict::IndirectCond            0      0.00%    100.00% # Number of BTB mispredictions. No target found or target wrong. (Count)
system.cpu0.branchPred.btb.mispredict::IndirectUncond            0      0.00%    100.00% # Number of BTB mispredictions. No target found or target wrong. (Count)
system.cpu0.branchPred.btb.mispredict::total         1422                       # Number of BTB mispredictions. No target found or target wrong. (Count)
system.cpu0.branchPred.btb.power_state.pwrStateResidencyTicks::UNDEFINED   2431177500                       # Cumulative time (in ticks) in various power states (Tick)
system.cpu0.branchPred.indirectBranchPred.lookups          832                       # Number of lookups (Count)
system.cpu0.branchPred.indirectBranchPred.hits          116                       # Number of hits of a tag (Count)
system.cpu0.branchPred.indirectBranchPred.misses          716                       # Number of misses (Count)
system.cpu0.branchPred.indirectBranchPred.targetRecords          194                       # Number of targets that where recorded/installed in the cache (Count)
system.cpu0.branchPred.indirectBranchPred.indirectRecords         1026                       # Number of indirect branches/calls recorded in the indirect hist (Count)
system.cpu0.branchPred.indirectBranchPred.speculativeOverflows            0                       # Number of times more than the allowed capacity for speculative branches/calls where in flight and destroy the path history (Count)
system.cpu0.branchPred.ras.pushes                1859                       # Number of times a PC was pushed onto the RAS (Count)
system.cpu0.branchPred.ras.pops                  1855                       # Number of times a PC was poped from the RAS (Count)
system.cpu0.branchPred.ras.squashes              1235                       # Number of times the stack operation was squashed due to wrong speculation. (Count)
system.cpu0.branchPred.ras.used                   620                       # Number of times the RAS is the provider (Count)
system.cpu0.branchPred.ras.correct                620                       # Number of times the RAS is the provider and the prediction is correct (Count)
system.cpu0.branchPred.ras.incorrect                0                       # Number of times the RAS is the provider and the prediction is wrong (Count)
system.cpu0.commit.commitSquashedInsts          73355                       # The number of squashed insts skipped by commit (Count)
system.cpu0.commit.commitNonSpecStalls              9                       # The number of times commit has been forced to stall to communicate backwards (Count)
system.cpu0.commit.branchMispredicts             1650                       # The number of times a branch was mispredicted (Count)
system.cpu0.commit.numCommittedDist::samples       278673                       # Number of insts commited each cycle (Count)
system.cpu0.commit.numCommittedDist::mean     0.734847                       # Number of insts commited each cycle (Count)
system.cpu0.commit.numCommittedDist::stdev     2.011312                       # Number of insts commited each cycle (Count)
system.cpu0.commit.numCommittedDist::underflows            0      0.00%      0.00% # Number of insts commited each cycle (Count)
system.cpu0.commit.numCommittedDist::0         231500     83.07%     83.07% # Number of insts commited each cycle (Count)
system.cpu0.commit.numCommittedDist::1          11195      4.02%     87.09% # Number of insts commited each cycle (Count)
system.cpu0.commit.numCommittedDist::2           6213      2.23%     89.32% # Number of insts commited each cycle (Count)
system.cpu0.commit.numCommittedDist::3           7393      2.65%     91.97% # Number of insts commited each cycle (Count)
system.cpu0.commit.numCommittedDist::4           2486      0.89%     92.86% # Number of insts commited each cycle (Count)
system.cpu0.commit.numCommittedDist::5           1881      0.67%     93.54% # Number of insts commited each cycle (Count)
system.cpu0.commit.numCommittedDist::6           1108      0.40%     93.94% # Number of insts commited each cycle (Count)
system.cpu0.commit.numCommittedDist::7           2191      0.79%     94.72% # Number of insts commited each cycle (Count)
system.cpu0.commit.numCommittedDist::8          14706      5.28%    100.00% # Number of insts commited each cycle (Count)
system.cpu0.commit.numCommittedDist::overflows            0      0.00%    100.00% # Number of insts commited each cycle (Count)
system.cpu0.commit.numCommittedDist::min_value            0                       # Number of insts commited each cycle (Count)
system.cpu0.commit.numCommittedDist::max_value            8                       # Number of insts commited each cycle (Count)
system.cpu0.commit.numCommittedDist::total       278673                       # Number of insts commited each cycle (Count)
system.cpu0.commit.amos                             0                       # Number of atomic instructions committed (Count)
system.cpu0.commit.membars                          0                       # Number of memory barriers committed (Count)
system.cpu0.commit.functionCalls                  624                       # Number of function calls committed. (Count)
system.cpu0.commit.committedInstType_0::No_OpClass          815      0.40%      0.40% # Class of committed instruction (Count)
system.cpu0.commit.committedInstType_0::IntAlu       143889     70.26%     70.66% # Class of committed instruction (Count)
system.cpu0.commit.committedInstType_0::IntMult           14      0.01%     70.67% # Class of committed instruction (Count)
system.cpu0.commit.committedInstType_0::IntDiv         1170      0.57%     71.24% # Class of committed instruction (Count)
system.cpu0.commit.committedInstType_0::FloatAdd         5456      2.66%     73.90% # Class of committed instruction (Count)
system.cpu0.commit.committedInstType_0::FloatCmp            0      0.00%     73.90% # Class of committed instruction (Count)
system.cpu0.commit.committedInstType_0::FloatCvt           16      0.01%     73.91% # Class of committed instruction (Count)
system.cpu0.commit.committedInstType_0::FloatMult            0      0.00%     73.91% # Class of committed instruction (Count)
system.cpu0.commit.committedInstType_0::FloatMultAcc            0      0.00%     73.91% # Class of committed instruction (Count)
system.cpu0.commit.committedInstType_0::FloatDiv            0      0.00%     73.91% # Class of committed instruction (Count)
system.cpu0.commit.committedInstType_0::FloatMisc            0      0.00%     73.91% # Class of committed instruction (Count)
system.cpu0.commit.committedInstType_0::FloatSqrt            0      0.00%     73.91% # Class of committed instruction (Count)
system.cpu0.commit.committedInstType_0::SimdAdd          286      0.14%     74.05% # Class of committed instruction (Count)
system.cpu0.commit.committedInstType_0::SimdAddAcc            0      0.00%     74.05% # Class of committed instruction (Count)
system.cpu0.commit.committedInstType_0::SimdAlu         1871      0.91%     74.97% # Class of committed instruction (Count)
system.cpu0.commit.committedInstType_0::SimdCmp            0      0.00%     74.97% # Class of committed instruction (Count)
system.cpu0.commit.committedInstType_0::SimdCvt          630      0.31%     75.27% # Class of committed instruction (Count)
system.cpu0.commit.committedInstType_0::SimdMisc         1204      0.59%     75.86% # Class of committed instruction (Count)
system.cpu0.commit.committedInstType_0::SimdMult            0      0.00%     75.86% # Class of committed instruction (Count)
system.cpu0.commit.committedInstType_0::SimdMultAcc            0      0.00%     75.86% # Class of committed instruction (Count)
system.cpu0.commit.committedInstType_0::SimdMatMultAcc            0      0.00%     75.86% # Class of committed instruction (Count)
system.cpu0.commit.committedInstType_0::SimdShift           81      0.04%     75.90% # Class of committed instruction (Count)
system.cpu0.commit.committedInstType_0::SimdShiftAcc            0      0.00%     75.90% # Class of committed instruction (Count)
system.cpu0.commit.committedInstType_0::SimdDiv            0      0.00%     75.90% # Class of committed instruction (Count)
system.cpu0.commit.committedInstType_0::SimdSqrt            0      0.00%     75.90% # Class of committed instruction (Count)
system.cpu0.commit.committedInstType_0::SimdFloatAdd         1024      0.50%     76.40% # Class of committed instruction (Count)
system.cpu0.commit.committedInstType_0::SimdFloatAlu            0      0.00%     76.40% # Class of committed instruction (Count)
system.cpu0.commit.committedInstType_0::SimdFloatCmp            0      0.00%     76.40% # Class of committed instruction (Count)
system.cpu0.commit.committedInstType_0::SimdFloatCvt          576      0.28%     76.68% # Class of committed instruction (Count)
system.cpu0.commit.committedInstType_0::SimdFloatDiv            0      0.00%     76.68% # Class of committed instruction (Count)
system.cpu0.commit.committedInstType_0::SimdFloatMisc            0      0.00%     76.68% # Class of committed instruction (Count)
system.cpu0.commit.committedInstType_0::SimdFloatMult         1024      0.50%     77.18% # Class of committed instruction (Count)
system.cpu0.commit.committedInstType_0::SimdFloatMultAcc            0      0.00%     77.18% # Class of committed instruction (Count)
system.cpu0.commit.committedInstType_0::SimdFloatMatMultAcc            0      0.00%     77.18% # Class of committed instruction (Count)
system.cpu0.commit.committedInstType_0::SimdFloatSqrt            0      0.00%     77.18% # Class of committed instruction (Count)
system.cpu0.commit.committedInstType_0::SimdReduceAdd            0      0.00%     77.18% # Class of committed instruction (Count)
system.cpu0.commit.committedInstType_0::SimdReduceAlu            0      0.00%     77.18% # Class of committed instruction (Count)
system.cpu0.commit.committedInstType_0::SimdReduceCmp            0      0.00%     77.18% # Class of committed instruction (Count)
system.cpu0.commit.committedInstType_0::SimdFloatReduceAdd            0      0.00%     77.18% # Class of committed instruction (Count)
system.cpu0.commit.committedInstType_0::SimdFloatReduceCmp            0      0.00%     77.18% # Class of committed instruction (Count)
system.cpu0.commit.committedInstType_0::SimdAes            0      0.00%     77.18% # Class of committed instruction (Count)
system.cpu0.commit.committedInstType_0::SimdAesMix            0      0.00%     77.18% # Class of committed instruction (Count)
system.cpu0.commit.committedInstType_0::SimdSha1Hash            0      0.00%     77.18% # Class of committed instruction (Count)
system.cpu0.commit.committedInstType_0::SimdSha1Hash2            0      0.00%     77.18% # Class of committed instruction (Count)
system.cpu0.commit.committedInstType_0::SimdSha256Hash            0      0.00%     77.18% # Class of committed instruction (Count)
system.cpu0.commit.committedInstType_0::SimdSha256Hash2            0      0.00%     77.18% # Class of committed instruction (Count)
system.cpu0.commit.committedInstType_0::SimdShaSigma2            0      0.00%     77.18% # Class of committed instruction (Count)
system.cpu0.commit.committedInstType_0::SimdShaSigma3            0      0.00%     77.18% # Class of committed instruction (Count)
system.cpu0.commit.committedInstType_0::SimdPredAlu            0      0.00%     77.18% # Class of committed instruction (Count)
system.cpu0.commit.committedInstType_0::Matrix            0      0.00%     77.18% # Class of committed instruction (Count)
system.cpu0.commit.committedInstType_0::MatrixMov            0      0.00%     77.18% # Class of committed instruction (Count)
system.cpu0.commit.committedInstType_0::MatrixOP            0      0.00%     77.18% # Class of committed instruction (Count)
system.cpu0.commit.committedInstType_0::MemRead        30609     14.95%     92.13% # Class of committed instruction (Count)
system.cpu0.commit.committedInstType_0::MemWrite        10841      5.29%     97.42% # Class of committed instruction (Count)
system.cpu0.commit.committedInstType_0::FloatMemRead         3340      1.63%     99.05% # Class of committed instruction (Count)
system.cpu0.commit.committedInstType_0::FloatMemWrite         1936      0.95%    100.00% # Class of committed instruction (Count)
system.cpu0.commit.committedInstType_0::IprAccess            0      0.00%    100.00% # Class of committed instruction (Count)
system.cpu0.commit.committedInstType_0::InstPrefetch            0      0.00%    100.00% # Class of committed instruction (Count)
system.cpu0.commit.committedInstType_0::VectorUnitStrideLoad            0      0.00%    100.00% # Class of committed instruction (Count)
system.cpu0.commit.committedInstType_0::VectorUnitStrideStore            0      0.00%    100.00% # Class of committed instruction (Count)
system.cpu0.commit.committedInstType_0::VectorUnitStrideMaskLoad            0      0.00%    100.00% # Class of committed instruction (Count)
system.cpu0.commit.committedInstType_0::VectorUnitStrideMaskStore            0      0.00%    100.00% # Class of committed instruction (Count)
system.cpu0.commit.committedInstType_0::VectorStridedLoad            0      0.00%    100.00% # Class of committed instruction (Count)
system.cpu0.commit.committedInstType_0::VectorStridedStore            0      0.00%    100.00% # Class of committed instruction (Count)
system.cpu0.commit.committedInstType_0::VectorIndexedLoad            0      0.00%    100.00% # Class of committed instruction (Count)
system.cpu0.commit.committedInstType_0::VectorIndexedStore            0      0.00%    100.00% # Class of committed instruction (Count)
system.cpu0.commit.committedInstType_0::VectorUnitStrideFaultOnlyFirstLoad            0      0.00%    100.00% # Class of committed instruction (Count)
system.cpu0.commit.committedInstType_0::VectorWholeRegisterLoad            0      0.00%    100.00% # Class of committed instruction (Count)
system.cpu0.commit.committedInstType_0::VectorWholeRegisterStore            0      0.00%    100.00% # Class of committed instruction (Count)
system.cpu0.commit.committedInstType_0::VectorIntegerArith            0      0.00%    100.00% # Class of committed instruction (Count)
system.cpu0.commit.committedInstType_0::VectorFloatArith            0      0.00%    100.00% # Class of committed instruction (Count)
system.cpu0.commit.committedInstType_0::VectorFloatConvert            0      0.00%    100.00% # Class of committed instruction (Count)
system.cpu0.commit.committedInstType_0::VectorIntegerReduce            0      0.00%    100.00% # Class of committed instruction (Count)
system.cpu0.commit.committedInstType_0::VectorFloatReduce            0      0.00%    100.00% # Class of committed instruction (Count)
system.cpu0.commit.committedInstType_0::VectorMisc            0      0.00%    100.00% # Class of committed instruction (Count)
system.cpu0.commit.committedInstType_0::VectorIntegerExtension            0      0.00%    100.00% # Class of committed instruction (Count)
system.cpu0.commit.committedInstType_0::VectorConfig            0      0.00%    100.00% # Class of committed instruction (Count)
system.cpu0.commit.committedInstType_0::total       204782                       # Class of committed instruction (Count)
system.cpu0.commit.commitEligibleSamples        14706                       # number cycles where commit BW limit reached (Cycle)
system.cpu0.commitStats0.numInsts              117336                       # Number of instructions committed (thread level) (Count)
system.cpu0.commitStats0.numOps                204782                       # Number of ops (including micro ops) committed (thread level) (Count)
system.cpu0.commitStats0.numInstsNotNOP        117336                       # Number of instructions committed excluding NOPs or prefetches (Count)
system.cpu0.commitStats0.numOpsNotNOP          204782                       # Number of Ops (including micro ops) Simulated (Count)
system.cpu0.commitStats0.cpi                 3.449461                       # CPI: cycles per instruction (thread level) ((Cycle/Count))
system.cpu0.commitStats0.ipc                 0.289900                       # IPC: instructions per cycle (thread level) ((Count/Cycle))
system.cpu0.commitStats0.numMemRefs             46726                       # Number of memory references committed (Count)
system.cpu0.commitStats0.numFpInsts             17584                       # Number of float instructions (Count)
system.cpu0.commitStats0.numIntInsts           191980                       # Number of integer instructions (Count)
system.cpu0.commitStats0.numLoadInsts           33949                       # Number of load instructions (Count)
system.cpu0.commitStats0.numStoreInsts          12777                       # Number of store instructions (Count)
system.cpu0.commitStats0.numVecInsts                0                       # Number of vector instructions (Count)
system.cpu0.commitStats0.committedInstType::No_OpClass          815      0.40%      0.40% # Class of committed instruction. (Count)
system.cpu0.commitStats0.committedInstType::IntAlu       143889     70.26%     70.66% # Class of committed instruction. (Count)
system.cpu0.commitStats0.committedInstType::IntMult           14      0.01%     70.67% # Class of committed instruction. (Count)
system.cpu0.commitStats0.committedInstType::IntDiv         1170      0.57%     71.24% # Class of committed instruction. (Count)
system.cpu0.commitStats0.committedInstType::FloatAdd         5456      2.66%     73.90% # Class of committed instruction. (Count)
system.cpu0.commitStats0.committedInstType::FloatCmp            0      0.00%     73.90% # Class of committed instruction. (Count)
system.cpu0.commitStats0.committedInstType::FloatCvt           16      0.01%     73.91% # Class of committed instruction. (Count)
system.cpu0.commitStats0.committedInstType::FloatMult            0      0.00%     73.91% # Class of committed instruction. (Count)
system.cpu0.commitStats0.committedInstType::FloatMultAcc            0      0.00%     73.91% # Class of committed instruction. (Count)
system.cpu0.commitStats0.committedInstType::FloatDiv            0      0.00%     73.91% # Class of committed instruction. (Count)
system.cpu0.commitStats0.committedInstType::FloatMisc            0      0.00%     73.91% # Class of committed instruction. (Count)
system.cpu0.commitStats0.committedInstType::FloatSqrt            0      0.00%     73.91% # Class of committed instruction. (Count)
system.cpu0.commitStats0.committedInstType::SimdAdd          286      0.14%     74.05% # Class of committed instruction. (Count)
system.cpu0.commitStats0.committedInstType::SimdAddAcc            0      0.00%     74.05% # Class of committed instruction. (Count)
system.cpu0.commitStats0.committedInstType::SimdAlu         1871      0.91%     74.97% # Class of committed instruction. (Count)
system.cpu0.commitStats0.committedInstType::SimdCmp            0      0.00%     74.97% # Class of committed instruction. (Count)
system.cpu0.commitStats0.committedInstType::SimdCvt          630      0.31%     75.27% # Class of committed instruction. (Count)
system.cpu0.commitStats0.committedInstType::SimdMisc         1204      0.59%     75.86% # Class of committed instruction. (Count)
system.cpu0.commitStats0.committedInstType::SimdMult            0      0.00%     75.86% # Class of committed instruction. (Count)
system.cpu0.commitStats0.committedInstType::SimdMultAcc            0      0.00%     75.86% # Class of committed instruction. (Count)
system.cpu0.commitStats0.committedInstType::SimdMatMultAcc            0      0.00%     75.86% # Class of committed instruction. (Count)
system.cpu0.commitStats0.committedInstType::SimdShift           81      0.04%     75.90% # Class of committed instruction. (Count)
system.cpu0.commitStats0.committedInstType::SimdShiftAcc            0      0.00%     75.90% # Class of committed instruction. (Count)
system.cpu0.commitStats0.committedInstType::SimdDiv            0      0.00%     75.90% # Class of committed instruction. (Count)
system.cpu0.commitStats0.committedInstType::SimdSqrt            0      0.00%     75.90% # Class of committed instruction. (Count)
system.cpu0.commitStats0.committedInstType::SimdFloatAdd         1024      0.50%     76.40% # Class of committed instruction. (Count)
system.cpu0.commitStats0.committedInstType::SimdFloatAlu            0      0.00%     76.40% # Class of committed instruction. (Count)
system.cpu0.commitStats0.committedInstType::SimdFloatCmp            0      0.00%     76.40% # Class of committed instruction. (Count)
system.cpu0.commitStats0.committedInstType::SimdFloatCvt          576      0.28%     76.68% # Class of committed instruction. (Count)
system.cpu0.commitStats0.committedInstType::SimdFloatDiv            0      0.00%     76.68% # Class of committed instruction. (Count)
system.cpu0.commitStats0.committedInstType::SimdFloatMisc            0      0.00%     76.68% # Class of committed instruction. (Count)
system.cpu0.commitStats0.committedInstType::SimdFloatMult         1024      0.50%     77.18% # Class of committed instruction. (Count)
system.cpu0.commitStats0.committedInstType::SimdFloatMultAcc            0      0.00%     77.18% # Class of committed instruction. (Count)
system.cpu0.commitStats0.committedInstType::SimdFloatMatMultAcc            0      0.00%     77.18% # Class of committed instruction. (Count)
system.cpu0.commitStats0.committedInstType::SimdFloatSqrt            0      0.00%     77.18% # Class of committed instruction. (Count)
system.cpu0.commitStats0.committedInstType::SimdReduceAdd            0      0.00%     77.18% # Class of committed instruction. (Count)
system.cpu0.commitStats0.committedInstType::SimdReduceAlu            0      0.00%     77.18% # Class of committed instruction. (Count)
system.cpu0.commitStats0.committedInstType::SimdReduceCmp            0      0.00%     77.18% # Class of committed instruction. (Count)
system.cpu0.commitStats0.committedInstType::SimdFloatReduceAdd            0      0.00%     77.18% # Class of committed instruction. (Count)
system.cpu0.commitStats0.committedInstType::SimdFloatReduceCmp            0      0.00%     77.18% # Class of committed instruction. (Count)
system.cpu0.commitStats0.committedInstType::SimdAes            0      0.00%     77.18% # Class of committed instruction. (Count)
system.cpu0.commitStats0.committedInstType::SimdAesMix            0      0.00%     77.18% # Class of committed instruction. (Count)
system.cpu0.commitStats0.committedInstType::SimdSha1Hash            0      0.00%     77.18% # Class of committed instruction. (Count)
system.cpu0.commitStats0.committedInstType::SimdSha1Hash2            0      0.00%     77.18% # Class of committed instruction. (Count)
system.cpu0.commitStats0.committedInstType::SimdSha256Hash            0      0.00%     77.18% # Class of committed instruction. (Count)
system.cpu0.commitStats0.committedInstType::SimdSha256Hash2            0      0.00%     77.18% # Class of committed instruction. (Count)
system.cpu0.commitStats0.committedInstType::SimdShaSigma2            0      0.00%     77.18% # Class of committed instruction. (Count)
system.cpu0.commitStats0.committedInstType::SimdShaSigma3            0      0.00%     77.18% # Class of committed instruction. (Count)
system.cpu0.commitStats0.committedInstType::SimdPredAlu            0      0.00%     77.18% # Class of committed instruction. (Count)
system.cpu0.commitStats0.committedInstType::Matrix            0      0.00%     77.18% # Class of committed instruction. (Count)
system.cpu0.commitStats0.committedInstType::MatrixMov            0      0.00%     77.18% # Class of committed instruction. (Count)
system.cpu0.commitStats0.committedInstType::MatrixOP            0      0.00%     77.18% # Class of committed instruction. (Count)
system.cpu0.commitStats0.committedInstType::MemRead        30609     14.95%     92.13% # Class of committed instruction. (Count)
system.cpu0.commitStats0.committedInstType::MemWrite        10841      5.29%     97.42% # Class of committed instruction. (Count)
system.cpu0.commitStats0.committedInstType::FloatMemRead         3340      1.63%     99.05% # Class of committed instruction. (Count)
system.cpu0.commitStats0.committedInstType::FloatMemWrite         1936      0.95%    100.00% # Class of committed instruction. (Count)
system.cpu0.commitStats0.committedInstType::IprAccess            0      0.00%    100.00% # Class of committed instruction. (Count)
system.cpu0.commitStats0.committedInstType::InstPrefetch            0      0.00%    100.00% # Class of committed instruction. (Count)
system.cpu0.commitStats0.committedInstType::VectorUnitStrideLoad            0      0.00%    100.00% # Class of committed instruction. (Count)
system.cpu0.commitStats0.committedInstType::VectorUnitStrideStore            0      0.00%    100.00% # Class of committed instruction. (Count)
system.cpu0.commitStats0.committedInstType::VectorUnitStrideMaskLoad            0      0.00%    100.00% # Class of committed instruction. (Count)
system.cpu0.commitStats0.committedInstType::VectorUnitStrideMaskStore            0      0.00%    100.00% # Class of committed instruction. (Count)
system.cpu0.commitStats0.committedInstType::VectorStridedLoad            0      0.00%    100.00% # Class of committed instruction. (Count)
system.cpu0.commitStats0.committedInstType::VectorStridedStore            0      0.00%    100.00% # Class of committed instruction. (Count)
system.cpu0.commitStats0.committedInstType::VectorIndexedLoad            0      0.00%    100.00% # Class of committed instruction. (Count)
system.cpu0.commitStats0.committedInstType::VectorIndexedStore            0      0.00%    100.00% # Class of committed instruction. (Count)
system.cpu0.commitStats0.committedInstType::VectorUnitStrideFaultOnlyFirstLoad            0      0.00%    100.00% # Class of committed instruction. (Count)
system.cpu0.commitStats0.committedInstType::VectorWholeRegisterLoad            0      0.00%    100.00% # Class of committed instruction. (Count)
system.cpu0.commitStats0.committedInstType::VectorWholeRegisterStore            0      0.00%    100.00% # Class of committed instruction. (Count)
system.cpu0.commitStats0.committedInstType::VectorIntegerArith            0      0.00%    100.00% # Class of committed instruction. (Count)
system.cpu0.commitStats0.committedInstType::VectorFloatArith            0      0.00%    100.00% # Class of committed instruction. (Count)
system.cpu0.commitStats0.committedInstType::VectorFloatConvert            0      0.00%    100.00% # Class of committed instruction. (Count)
system.cpu0.commitStats0.committedInstType::VectorIntegerReduce            0      0.00%    100.00% # Class of committed instruction. (Count)
system.cpu0.commitStats0.committedInstType::VectorFloatReduce            0      0.00%    100.00% # Class of committed instruction. (Count)
system.cpu0.commitStats0.committedInstType::VectorMisc            0      0.00%    100.00% # Class of committed instruction. (Count)
system.cpu0.commitStats0.committedInstType::VectorIntegerExtension            0      0.00%    100.00% # Class of committed instruction. (Count)
system.cpu0.commitStats0.committedInstType::VectorConfig            0      0.00%    100.00% # Class of committed instruction. (Count)
system.cpu0.commitStats0.committedInstType::total       204782                       # Class of committed instruction. (Count)
system.cpu0.commitStats0.committedControl::IsControl        17422                       # Class of control type instructions committed (Count)
system.cpu0.commitStats0.committedControl::IsDirectControl        16535                       # Class of control type instructions committed (Count)
system.cpu0.commitStats0.committedControl::IsIndirectControl          875                       # Class of control type instructions committed (Count)
system.cpu0.commitStats0.committedControl::IsCondControl        15208                       # Class of control type instructions committed (Count)
system.cpu0.commitStats0.committedControl::IsUncondControl         2202                       # Class of control type instructions committed (Count)
system.cpu0.commitStats0.committedControl::IsCall          624                       # Class of control type instructions committed (Count)
system.cpu0.commitStats0.committedControl::IsReturn          620                       # Class of control type instructions committed (Count)
system.cpu0.decode.idleCycles                   81653                       # Number of cycles decode is idle (Cycle)
system.cpu0.decode.blockedCycles               163635                       # Number of cycles decode is blocked (Cycle)
system.cpu0.decode.runCycles                    36245                       # Number of cycles decode is running (Cycle)
system.cpu0.decode.unblockCycles                 6037                       # Number of cycles decode is unblocking (Cycle)
system.cpu0.decode.squashCycles                  1826                       # Number of cycles decode is squashing (Cycle)
system.cpu0.decode.branchResolved               10343                       # Number of times decode resolved a branch (Count)
system.cpu0.decode.branchMispred                  430                       # Number of times decode detected a branch misprediction (Count)
system.cpu0.decode.decodedInsts                296254                       # Number of instructions handled by decode (Count)
system.cpu0.decode.squashedInsts                 2202                       # Number of squashed instructions handled by decode (Count)
system.cpu0.executeStats0.numInsts             254182                       # Number of executed instructions (Count)
system.cpu0.executeStats0.numNop                    0                       # Number of nop insts executed (Count)
system.cpu0.executeStats0.numBranches           20255                       # Number of branches executed (Count)
system.cpu0.executeStats0.numLoadInsts          43586                       # Number of load instructions executed (Count)
system.cpu0.executeStats0.numStoreInsts         15720                       # Number of stores executed (Count)
system.cpu0.executeStats0.instRate           0.628004                       # Inst execution rate ((Count/Cycle))
system.cpu0.executeStats0.numCCRegReads        113625                       # Number of times the CC registers were read (Count)
system.cpu0.executeStats0.numCCRegWrites        89824                       # Number of times the CC registers were written (Count)
system.cpu0.executeStats0.numFpRegReads         20089                       # Number of times the floating registers were read (Count)
[...]
system.ruby.network.data_traffic_distribution.n3.n7            0                       (Unspecified)
system.ruby.network.data_traffic_distribution.n3.n8            0                       (Unspecified)
system.ruby.network.data_traffic_distribution.n3.n9            0                       (Unspecified)
system.ruby.network.data_traffic_distribution.n4.n0         7996                       (Unspecified)
system.ruby.network.data_traffic_distribution.n4.n1            0                       (Unspecified)
system.ruby.network.data_traffic_distribution.n4.n10            0                       (Unspecified)
system.ruby.network.data_traffic_distribution.n4.n11            0                       (Unspecified)
system.ruby.network.data_traffic_distribution.n4.n12            0                       (Unspecified)
system.ruby.network.data_traffic_distribution.n4.n13            0                       (Unspecified)
system.ruby.network.data_traffic_distribution.n4.n14            0                       (Unspecified)
system.ruby.network.data_traffic_distribution.n4.n15            0                       (Unspecified)
system.ruby.network.data_traffic_distribution.n4.n2            0                       (Unspecified)
system.ruby.network.data_traffic_distribution.n4.n3            0                       (Unspecified)
system.ruby.network.data_traffic_distribution.n4.n4            0                       (Unspecified)
system.ruby.network.data_traffic_distribution.n4.n5            0                       (Unspecified)
system.ruby.network.data_traffic_distribution.n4.n6            0                       (Unspecified)
system.ruby.network.data_traffic_distribution.n4.n7            0                       (Unspecified)
system.ruby.network.data_traffic_distribution.n4.n8            0                       (Unspecified)
system.ruby.network.data_traffic_distribution.n4.n9            0                       (Unspecified)
system.ruby.network.data_traffic_distribution.n5.n0        30072                       (Unspecified)
system.ruby.network.data_traffic_distribution.n5.n1            0                       (Unspecified)
system.ruby.network.data_traffic_distribution.n5.n10            0                       (Unspecified)
system.ruby.network.data_traffic_distribution.n5.n11            0                       (Unspecified)
system.ruby.network.data_traffic_distribution.n5.n12            0                       (Unspecified)
system.ruby.network.data_traffic_distribution.n5.n13            0                       (Unspecified)
system.ruby.network.data_traffic_distribution.n5.n14            0                       (Unspecified)
system.ruby.network.data_traffic_distribution.n5.n15            0                       (Unspecified)
system.ruby.network.data_traffic_distribution.n5.n2            0                       (Unspecified)
system.ruby.network.data_traffic_distribution.n5.n3            0                       (Unspecified)
system.ruby.network.data_traffic_distribution.n5.n4            0                       (Unspecified)
system.ruby.network.data_traffic_distribution.n5.n5            0                       (Unspecified)
system.ruby.network.data_traffic_distribution.n5.n6            0                       (Unspecified)
system.ruby.network.data_traffic_distribution.n5.n7            0                       (Unspecified)
system.ruby.network.data_traffic_distribution.n5.n8            0                       (Unspecified)
system.ruby.network.data_traffic_distribution.n5.n9            0                       (Unspecified)
system.ruby.network.data_traffic_distribution.n6.n0         8651                       (Unspecified)
system.ruby.network.data_traffic_distribution.n6.n1            0                       (Unspecified)
system.ruby.network.data_traffic_distribution.n6.n10            0                       (Unspecified)
system.ruby.network.data_traffic_distribution.n6.n11            0                       (Unspecified)
system.ruby.network.data_traffic_distribution.n6.n12            0                       (Unspecified)
system.ruby.network.data_traffic_distribution.n6.n13            0                       (Unspecified)
system.ruby.network.data_traffic_distribution.n6.n14            0                       (Unspecified)
system.ruby.network.data_traffic_distribution.n6.n15            0                       (Unspecified)
system.ruby.network.data_traffic_distribution.n6.n2            0                       (Unspecified)
system.ruby.network.data_traffic_distribution.n6.n3            0                       (Unspecified)
system.ruby.network.data_traffic_distribution.n6.n4            0                       (Unspecified)
system.ruby.network.data_traffic_distribution.n6.n5            0                       (Unspecified)
system.ruby.network.data_traffic_distribution.n6.n6            0                       (Unspecified)
system.ruby.network.data_traffic_distribution.n6.n7            0                       (Unspecified)
system.ruby.network.data_traffic_distribution.n6.n8            0                       (Unspecified)
system.ruby.network.data_traffic_distribution.n6.n9            0                       (Unspecified)
system.ruby.network.data_traffic_distribution.n7.n0         7939                       (Unspecified)
system.ruby.network.data_traffic_distribution.n7.n1            0                       (Unspecified)
system.ruby.network.data_traffic_distribution.n7.n10            0                       (Unspecified)
system.ruby.network.data_traffic_distribution.n7.n11            0                       (Unspecified)
system.ruby.network.data_traffic_distribution.n7.n12            0                       (Unspecified)
system.ruby.network.data_traffic_distribution.n7.n13            0                       (Unspecified)
system.ruby.network.data_traffic_distribution.n7.n14            0                       (Unspecified)
system.ruby.network.data_traffic_distribution.n7.n15            0                       (Unspecified)
system.ruby.network.data_traffic_distribution.n7.n2            0                       (Unspecified)
system.ruby.network.data_traffic_distribution.n7.n3            0                       (Unspecified)
system.ruby.network.data_traffic_distribution.n7.n4            0                       (Unspecified)
system.ruby.network.data_traffic_distribution.n7.n5            0                       (Unspecified)
system.ruby.network.data_traffic_distribution.n7.n6            0                       (Unspecified)
system.ruby.network.data_traffic_distribution.n7.n7            0                       (Unspecified)
system.ruby.network.data_traffic_distribution.n7.n8            0                       (Unspecified)
system.ruby.network.data_traffic_distribution.n7.n9            0                       (Unspecified)
system.ruby.network.data_traffic_distribution.n8.n0         8102                       (Unspecified)
system.ruby.network.data_traffic_distribution.n8.n1            0                       (Unspecified)
system.ruby.network.data_traffic_distribution.n8.n10            0                       (Unspecified)
system.ruby.network.data_traffic_distribution.n8.n11            0                       (Unspecified)
system.ruby.network.data_traffic_distribution.n8.n12            0                       (Unspecified)
system.ruby.network.data_traffic_distribution.n8.n13            0                       (Unspecified)
system.ruby.network.data_traffic_distribution.n8.n14            0                       (Unspecified)
system.ruby.network.data_traffic_distribution.n8.n15            0                       (Unspecified)
system.ruby.network.data_traffic_distribution.n8.n2            0                       (Unspecified)
system.ruby.network.data_traffic_distribution.n8.n3            0                       (Unspecified)
system.ruby.network.data_traffic_distribution.n8.n4            0                       (Unspecified)
system.ruby.network.data_traffic_distribution.n8.n5            0                       (Unspecified)
system.ruby.network.data_traffic_distribution.n8.n6            0                       (Unspecified)
system.ruby.network.data_traffic_distribution.n8.n7            0                       (Unspecified)
system.ruby.network.data_traffic_distribution.n8.n8            0                       (Unspecified)
system.ruby.network.data_traffic_distribution.n8.n9            0                       (Unspecified)
system.ruby.network.data_traffic_distribution.n9.n0        31065                       (Unspecified)
system.ruby.network.data_traffic_distribution.n9.n1            0                       (Unspecified)
system.ruby.network.data_traffic_distribution.n9.n10            0                       (Unspecified)
system.ruby.network.data_traffic_distribution.n9.n11            0                       (Unspecified)
system.ruby.network.data_traffic_distribution.n9.n12            0                       (Unspecified)
system.ruby.network.data_traffic_distribution.n9.n13            0                       (Unspecified)
system.ruby.network.data_traffic_distribution.n9.n14            0                       (Unspecified)
system.ruby.network.data_traffic_distribution.n9.n15            0                       (Unspecified)
system.ruby.network.data_traffic_distribution.n9.n2            0                       (Unspecified)
system.ruby.network.data_traffic_distribution.n9.n3            0                       (Unspecified)
system.ruby.network.data_traffic_distribution.n9.n4            0                       (Unspecified)
system.ruby.network.data_traffic_distribution.n9.n5            0                       (Unspecified)
system.ruby.network.data_traffic_distribution.n9.n6            0                       (Unspecified)
system.ruby.network.data_traffic_distribution.n9.n7            0                       (Unspecified)
system.ruby.network.data_traffic_distribution.n9.n8            0                       (Unspecified)
system.ruby.network.data_traffic_distribution.n9.n9            0                       (Unspecified)
system.ruby.network.ext_in_link_utilization      1987879                       (Unspecified)
system.ruby.network.ext_out_link_utilization      1987876                       (Unspecified)
system.ruby.network.flit_network_latency | 10172692000                       |   447148500                       | 13732015500                       (Unspecified)
system.ruby.network.flit_queueing_latency |   591460000                       |    44303500                       |  2799888500                       (Unspecified)
system.ruby.network.flits_injected       |      597710     30.07%     30.07% |       88465      4.45%     34.52% |     1301704     65.48%    100.00% (Unspecified)
system.ruby.network.flits_injected::total      1987879                       (Unspecified)
system.ruby.network.flits_received       |      597708     30.07%     30.07% |       88465      4.45%     34.52% |     1301703     65.48%    100.00% (Unspecified)
system.ruby.network.flits_received::total      1987876                       (Unspecified)
system.ruby.network.int_link_utilization      5547874                       (Unspecified)
system.ruby.network.packet_network_latency |  4713393500                       |   398353500                       |  5157414000                       (Unspecified)
system.ruby.network.packet_queueing_latency |   325050000                       |    41379500                       |   750532500                       (Unspecified)
system.ruby.network.packets_injected     |      292250     32.80%     32.80% |       82617      9.27%     42.07% |      516248     57.93%    100.00% (Unspecified)
system.ruby.network.packets_injected::total       891115                       (Unspecified)
system.ruby.network.packets_received     |      292248     32.80%     32.80% |       82617      9.27%     42.07% |      516247     57.93%    100.00% (Unspecified)
system.ruby.network.packets_received::total       891112                       (Unspecified)
system.ruby.network.routers00.buffer_reads      1987876                       (Unspecified)
system.ruby.network.routers00.buffer_writes      1987876                       (Unspecified)
system.ruby.network.routers00.crossbar_activity      1987876                       (Unspecified)
system.ruby.network.routers00.sw_input_arbiter_activity      2251096                       (Unspecified)
system.ruby.network.routers00.sw_output_arbiter_activity      1987876                       (Unspecified)
system.ruby.network.routers01.buffer_reads       988594                       (Unspecified)
system.ruby.network.routers01.buffer_writes       988594                       (Unspecified)
system.ruby.network.routers01.crossbar_activity       988594                       (Unspecified)
system.ruby.network.routers01.sw_input_arbiter_activity       998187                       (Unspecified)
system.ruby.network.routers01.sw_output_arbiter_activity       988594                       (Unspecified)
system.ruby.network.routers02.buffer_reads       314289                       (Unspecified)
system.ruby.network.routers02.buffer_writes       314289                       (Unspecified)
system.ruby.network.routers02.crossbar_activity       314289                       (Unspecified)
system.ruby.network.routers02.sw_input_arbiter_activity       318396                       (Unspecified)
system.ruby.network.routers02.sw_output_arbiter_activity       314289                       (Unspecified)
system.ruby.network.routers03.buffer_reads       147835                       (Unspecified)
system.ruby.network.routers03.buffer_writes       147835                       (Unspecified)
system.ruby.network.routers03.crossbar_activity       147835                       (Unspecified)
system.ruby.network.routers03.sw_input_arbiter_activity       148438                       (Unspecified)
system.ruby.network.routers03.sw_output_arbiter_activity       147835                       (Unspecified)
system.ruby.network.routers04.buffer_reads       931924                       (Unspecified)
system.ruby.network.routers04.buffer_writes       931924                       (Unspecified)
system.ruby.network.routers04.crossbar_activity       931924                       (Unspecified)
system.ruby.network.routers04.sw_input_arbiter_activity      1108597                       (Unspecified)
system.ruby.network.routers04.sw_output_arbiter_activity       931924                       (Unspecified)
system.ruby.network.routers05.buffer_reads       628350                       (Unspecified)
system.ruby.network.routers05.buffer_writes       628350                       (Unspecified)
system.ruby.network.routers05.crossbar_activity       628350                       (Unspecified)
system.ruby.network.routers05.sw_input_arbiter_activity       637488                       (Unspecified)
system.ruby.network.routers05.sw_output_arbiter_activity       628350                       (Unspecified)
system.ruby.network.routers06.buffer_reads       176952                       (Unspecified)
system.ruby.network.routers06.buffer_writes       176952                       (Unspecified)
system.ruby.network.routers06.crossbar_activity       176952                       (Unspecified)
system.ruby.network.routers06.sw_input_arbiter_activity       181118                       (Unspecified)
system.ruby.network.routers06.sw_output_arbiter_activity       176952                       (Unspecified)
system.ruby.network.routers07.buffer_reads       120621                       (Unspecified)
system.ruby.network.routers07.buffer_writes       120621                       (Unspecified)
system.ruby.network.routers07.crossbar_activity       120621                       (Unspecified)
system.ruby.network.routers07.sw_input_arbiter_activity       121192                       (Unspecified)
system.ruby.network.routers07.sw_output_arbiter_activity       120621                       (Unspecified)
system.ruby.network.routers08.buffer_reads       623642                       (Unspecified)
system.ruby.network.routers08.buffer_writes       623642                       (Unspecified)
system.ruby.network.routers08.crossbar_activity       623642                       (Unspecified)
system.ruby.network.routers08.sw_input_arbiter_activity       731820                       (Unspecified)
system.ruby.network.routers08.sw_output_arbiter_activity       623642                       (Unspecified)
system.ruby.network.routers09.buffer_reads       504857                       (Unspecified)
system.ruby.network.routers09.buffer_writes       504857                       (Unspecified)
system.ruby.network.routers09.crossbar_activity       504857                       (Unspecified)
system.ruby.network.routers09.sw_input_arbiter_activity       516006                       (Unspecified)
system.ruby.network.routers09.sw_output_arbiter_activity       504857                       (Unspecified)
system.ruby.network.routers10.buffer_reads       146989                       (Unspecified)
system.ruby.network.routers10.buffer_writes       146989                       (Unspecified)
system.ruby.network.routers10.crossbar_activity       146989                       (Unspecified)
system.ruby.network.routers10.sw_input_arbiter_activity       151579                       (Unspecified)
system.ruby.network.routers10.sw_output_arbiter_activity       146989                       (Unspecified)
system.ruby.network.routers11.buffer_reads        94147                       (Unspecified)
system.ruby.network.routers11.buffer_writes        94147                       (Unspecified)
system.ruby.network.routers11.crossbar_activity        94147                       (Unspecified)
system.ruby.network.routers11.sw_input_arbiter_activity        94792                       (Unspecified)
system.ruby.network.routers11.sw_output_arbiter_activity        94147                       (Unspecified)
system.ruby.network.routers12.buffer_reads       311065                       (Unspecified)
system.ruby.network.routers12.buffer_writes       311065                       (Unspecified)
system.ruby.network.routers12.crossbar_activity       311065                       (Unspecified)
system.ruby.network.routers12.sw_input_arbiter_activity       324399                       (Unspecified)
system.ruby.network.routers12.sw_output_arbiter_activity       311065                       (Unspecified)
system.ruby.network.routers13.buffer_reads       374016                       (Unspecified)
system.ruby.network.routers13.buffer_writes       374016                       (Unspecified)
system.ruby.network.routers13.crossbar_activity       374016                       (Unspecified)
system.ruby.network.routers13.sw_input_arbiter_activity       385283                       (Unspecified)
system.ruby.network.routers13.sw_output_arbiter_activity       374016                       (Unspecified)
system.ruby.network.routers14.buffer_reads       116983                       (Unspecified)
system.ruby.network.routers14.buffer_writes       116983                       (Unspecified)
system.ruby.network.routers14.crossbar_activity       116983                       (Unspecified)
system.ruby.network.routers14.sw_input_arbiter_activity       122215                       (Unspecified)
system.ruby.network.routers14.sw_output_arbiter_activity       116983                       (Unspecified)
system.ruby.network.routers15.buffer_reads        67611                       (Unspecified)
system.ruby.network.routers15.buffer_writes        67611                       (Unspecified)
system.ruby.network.routers15.crossbar_activity        67611                       (Unspecified)
system.ruby.network.routers15.sw_input_arbiter_activity        68292                       (Unspecified)
system.ruby.network.routers15.sw_output_arbiter_activity        67611                       (Unspecified)

---------- End Simulation Statistics   ----------
