
---------- Begin Simulation Statistics ----------
simSeconds                                   0.002239                       # Number of seconds simulated (Second)
simTicks                                   2239193000                       # Number of ticks simulated (Tick)
finalTick                                  2239193000                       # Number of ticks from beginning of simulation (restored from checkpoints and never reset) (Tick)
simFreq                                  1000000000000                       # The number of ticks per simulated second ((Tick/Second))
hostSeconds                                     99.05                       # Real time elapsed on the host (Second)
hostTickRate                                 22607016                       # The number of ticks simulated per host second (ticks/s) ((Tick/Second))
hostMemory                                    1579552                       # Number of bytes of host memory used (Byte)
simInsts                                     15306034                       # Number of instructions simulated (Count)
simOps                                       26537208                       # Number of ops (including micro ops) simulated (Count)
hostInstRate                                   154530                       # Simulator instruction rate (inst/s) ((Count/Second))
hostOpRate                                     267921                       # Simulator op (including micro ops) rate (op/s) ((Count/Second))
system.clk_domain.clock                          1000                       # Clock period in ticks (Tick)
system.cpu0.numCycles                         4331907                       # Number of cpu cycles simulated (Cycle)
system.cpu0.cpi                              0.750596                       # CPI: cycles per instruction (core level) ((Cycle/Count))
system.cpu0.ipc                              1.332275                       # IPC: instructions per cycle (core level) ((Count/Cycle))
system.cpu0.numWorkItemsStarted                     0                       # Number of work items this cpu started (Count)
system.cpu0.numWorkItemsCompleted                   0                       # Number of work items this cpu completed (Count)
system.cpu0.instsAdded                       11188290                       # Number of instructions added to the IQ (excludes non-spec) (Count)
system.cpu0.nonSpecInstsAdded                     426                       # Number of non-speculative instructions added to the IQ (Count)
system.cpu0.instsIssued                      10760978                       # Number of instructions issued (Count)
system.cpu0.squashedInstsIssued                  1740                       # Number of squashed instructions issued (Count)
system.cpu0.squashedInstsExamined             1106526                       # Number of squashed instructions iterated over during squash; mainly for profiling (Count)
system.cpu0.squashedOperandsExamined          2719901                       # Number of squashed operands that are examined and possibly removed from graph (Count)
system.cpu0.squashedNonSpecRemoved                156                       # Number of squashed non-spec instructions that were removed (Count)
system.cpu0.numIssuedDist::samples            4178598                       # Number of insts issued each cycle (Count)
system.cpu0.numIssuedDist::mean              2.575260                       # Number of insts issued each cycle (Count)
system.cpu0.numIssuedDist::stdev             2.497901                       # Number of insts issued each cycle (Count)
system.cpu0.numIssuedDist::underflows               0      0.00%      0.00% # Number of insts issued each cycle (Count)
system.cpu0.numIssuedDist::0                  1289760     30.87%     30.87% # Number of insts issued each cycle (Count)
system.cpu0.numIssuedDist::1                   559393     13.39%     44.25% # Number of insts issued each cycle (Count)
system.cpu0.numIssuedDist::2                   465725     11.15%     55.40% # Number of insts issued each cycle (Count)
system.cpu0.numIssuedDist::3                   439288     10.51%     65.91% # Number of insts issued each cycle (Count)
system.cpu0.numIssuedDist::4                   451638     10.81%     76.72% # Number of insts issued each cycle (Count)
system.cpu0.numIssuedDist::5                   331874      7.94%     84.66% # Number of insts issued each cycle (Count)
system.cpu0.numIssuedDist::6                   241026      5.77%     90.43% # Number of insts issued each cycle (Count)
system.cpu0.numIssuedDist::7                   158959      3.80%     94.23% # Number of insts issued each cycle (Count)
system.cpu0.numIssuedDist::8                   240935      5.77%    100.00% # Number of insts issued each cycle (Count)
system.cpu0.numIssuedDist::overflows                0      0.00%    100.00% # Number of insts issued each cycle (Count)
system.cpu0.numIssuedDist::min_value                0                       # Number of insts issued each cycle (Count)
system.cpu0.numIssuedDist::max_value                8                       # Number of insts issued each cycle (Count)
system.cpu0.numIssuedDist::total              4178598                       # Number of insts issued each cycle (Count)
system.cpu0.statFuBusy::No_OpClass                  0      0.00%      0.00% # attempts to use FU when none available (Count)
system.cpu0.statFuBusy::IntAlu                  42087     40.68%     40.68% # attempts to use FU when none available (Count)
system.cpu0.statFuBusy::IntMult                     0      0.00%     40.68% # attempts to use FU when none available (Count)
system.cpu0.statFuBusy::IntDiv                      0      0.00%     40.68% # attempts to use FU when none available (Count)
system.cpu0.statFuBusy::FloatAdd                 1714      1.66%     42.34% # attempts to use FU when none available (Count)
system.cpu0.statFuBusy::FloatCmp                    0      0.00%     42.34% # attempts to use FU when none available (Count)
system.cpu0.statFuBusy::FloatCvt                    0      0.00%     42.34% # attempts to use FU when none available (Count)
system.cpu0.statFuBusy::FloatMult                   0      0.00%     42.34% # attempts to use FU when none available (Count)
system.cpu0.statFuBusy::FloatMultAcc                0      0.00%     42.34% # attempts to use FU when none available (Count)
system.cpu0.statFuBusy::FloatDiv                    0      0.00%     42.34% # attempts to use FU when none available (Count)
system.cpu0.statFuBusy::FloatMisc                   0      0.00%     42.34% # attempts to use FU when none available (Count)
system.cpu0.statFuBusy::FloatSqrt                   0      0.00%     42.34% # attempts to use FU when none available (Count)
system.cpu0.statFuBusy::SimdAdd                     2      0.00%     42.34% # attempts to use FU when none available (Count)
system.cpu0.statFuBusy::SimdAddAcc                  0      0.00%     42.34% # attempts to use FU when none available (Count)
system.cpu0.statFuBusy::SimdAlu                   157      0.15%     42.49% # attempts to use FU when none available (Count)
system.cpu0.statFuBusy::SimdCmp                     0      0.00%     42.49% # attempts to use FU when none available (Count)
system.cpu0.statFuBusy::SimdCvt                   214      0.21%     42.70% # attempts to use FU when none available (Count)
system.cpu0.statFuBusy::SimdMisc                    0      0.00%     42.70% # attempts to use FU when none available (Count)
system.cpu0.statFuBusy::SimdMult                    0      0.00%     42.70% # attempts to use FU when none available (Count)
system.cpu0.statFuBusy::SimdMultAcc                 0      0.00%     42.70% # attempts to use FU when none available (Count)
system.cpu0.statFuBusy::SimdMatMultAcc              0      0.00%     42.70% # attempts to use FU when none available (Count)
system.cpu0.statFuBusy::SimdShift                 127      0.12%     42.82% # attempts to use FU when none available (Count)
system.cpu0.statFuBusy::SimdShiftAcc                0      0.00%     42.82% # attempts to use FU when none available (Count)
system.cpu0.statFuBusy::SimdDiv                     0      0.00%     42.82% # attempts to use FU when none available (Count)
system.cpu0.statFuBusy::SimdSqrt                    0      0.00%     42.82% # attempts to use FU when none available (Count)
system.cpu0.statFuBusy::SimdFloatAdd                0      0.00%     42.82% # attempts to use FU when none available (Count)
system.cpu0.statFuBusy::SimdFloatAlu                0      0.00%     42.82% # attempts to use FU when none available (Count)
system.cpu0.statFuBusy::SimdFloatCmp                0      0.00%     42.82% # attempts to use FU when none available (Count)
system.cpu0.statFuBusy::SimdFloatCvt                0      0.00%     42.82% # attempts to use FU when none available (Count)
system.cpu0.statFuBusy::SimdFloatDiv                0      0.00%     42.82% # attempts to use FU when none available (Count)
system.cpu0.statFuBusy::SimdFloatMisc               0      0.00%     42.82% # attempts to use FU when none available (Count)
system.cpu0.statFuBusy::SimdFloatMult               1      0.00%     42.82% # attempts to use FU when none available (Count)
system.cpu0.statFuBusy::SimdFloatMultAcc            0      0.00%     42.82% # attempts to use FU when none available (Count)
system.cpu0.statFuBusy::SimdFloatMatMultAcc            0      0.00%     42.82% # attempts to use FU when none available (Count)
system.cpu0.statFuBusy::SimdFloatSqrt               0      0.00%     42.82% # attempts to use FU when none available (Count)
system.cpu0.statFuBusy::SimdReduceAdd               0      0.00%     42.82% # attempts to use FU when none available (Count)
system.cpu0.statFuBusy::SimdReduceAlu               0      0.00%     42.82% # attempts to use FU when none available (Count)
system.cpu0.statFuBusy::SimdReduceCmp               0      0.00%     42.82% # attempts to use FU when none available (Count)
system.cpu0.statFuBusy::SimdFloatReduceAdd            0      0.00%     42.82% # attempts to use FU when none available (Count)
system.cpu0.statFuBusy::SimdFloatReduceCmp            0      0.00%     42.82% # attempts to use FU when none available (Count)
system.cpu0.statFuBusy::SimdAes                     0      0.00%     42.82% # attempts to use FU when none available (Count)
system.cpu0.statFuBusy::SimdAesMix                  0      0.00%     42.82% # attempts to use FU when none available (Count)
system.cpu0.statFuBusy::SimdSha1Hash                0      0.00%     42.82% # attempts to use FU when none available (Count)
system.cpu0.statFuBusy::SimdSha1Hash2               0      0.00%     42.82% # attempts to use FU when none available (Count)
system.cpu0.statFuBusy::SimdSha256Hash              0      0.00%     42.82% # attempts to use FU when none available (Count)
system.cpu0.statFuBusy::SimdSha256Hash2             0      0.00%     42.82% # attempts to use FU when none available (Count)
system.cpu0.statFuBusy::SimdShaSigma2               0      0.00%     42.82% # attempts to use FU when none available (Count)
system.cpu0.statFuBusy::SimdShaSigma3               0      0.00%     42.82% # attempts to use FU when none available (Count)
system.cpu0.statFuBusy::SimdPredAlu                 0      0.00%     42.82% # attempts to use FU when none available (Count)
system.cpu0.statFuBusy::Matrix                      0      0.00%     42.82% # attempts to use FU when none available (Count)
system.cpu0.statFuBusy::MatrixMov                   0      0.00%     42.82% # attempts to use FU when none available (Count)
system.cpu0.statFuBusy::MatrixOP                    0      0.00%     42.82% # attempts to use FU when none available (Count)
system.cpu0.statFuBusy::MemRead                 29531     28.54%     71.36% # attempts to use FU when none available (Count)
system.cpu0.statFuBusy::MemWrite                11399     11.02%     82.38% # attempts to use FU when none available (Count)
system.cpu0.statFuBusy::FloatMemRead            17961     17.36%     99.74% # attempts to use FU when none available (Count)
system.cpu0.statFuBusy::FloatMemWrite             268      0.26%    100.00% # attempts to use FU when none available (Count)
system.cpu0.statFuBusy::IprAccess                   0      0.00%    100.00% # attempts to use FU when none available (Count)
system.cpu0.statFuBusy::InstPrefetch                0      0.00%    100.00% # attempts to use FU when none available (Count)
system.cpu0.statFuBusy::VectorUnitStrideLoad            0      0.00%    100.00% # attempts to use FU when none available (Count)
system.cpu0.statFuBusy::VectorUnitStrideStore            0      0.00%    100.00% # attempts to use FU when none available (Count)
system.cpu0.statFuBusy::VectorUnitStrideMaskLoad            0      0.00%    100.00% # attempts to use FU when none available (Count)
system.cpu0.statFuBusy::VectorUnitStrideMaskStore            0      0.00%    100.00% # attempts to use FU when none available (Count)
system.cpu0.statFuBusy::VectorStridedLoad            0      0.00%    100.00% # attempts to use FU when none available (Count)
system.cpu0.statFuBusy::VectorStridedStore            0      0.00%    100.00% # attempts to use FU when none available (Count)
system.cpu0.statFuBusy::VectorIndexedLoad            0      0.00%    100.00% # attempts to use FU when none available (Count)
system.cpu0.statFuBusy::VectorIndexedStore            0      0.00%    100.00% # attempts to use FU when none available (Count)
system.cpu0.statFuBusy::VectorUnitStrideFaultOnlyFirstLoad            0      0.00%    100.00% # attempts to use FU when none available (Count)
system.cpu0.statFuBusy::VectorWholeRegisterLoad            0      0.00%    100.00% # attempts to use FU when none available (Count)
system.cpu0.statFuBusy::VectorWholeRegisterStore            0      0.00%    100.00% # attempts to use FU when none available (Count)
system.cpu0.statFuBusy::VectorIntegerArith            0      0.00%    100.00% # attempts to use FU when none available (Count)
system.cpu0.statFuBusy::VectorFloatArith            0      0.00%    100.00% # attempts to use FU when none available (Count)
system.cpu0.statFuBusy::VectorFloatConvert            0      0.00%    100.00% # attempts to use FU when none available (Count)
system.cpu0.statFuBusy::VectorIntegerReduce            0      0.00%    100.00% # attempts to use FU when none available (Count)
system.cpu0.statFuBusy::VectorFloatReduce            0      0.00%    100.00% # attempts to use FU when none available (Count)
system.cpu0.statFuBusy::VectorMisc                  0      0.00%    100.00% # attempts to use FU when none available (Count)
system.cpu0.statFuBusy::VectorIntegerExtension            0      0.00%    100.00% # attempts to use FU when none available (Count)
system.cpu0.statFuBusy::VectorConfig                0      0.00%    100.00% # attempts to use FU when none available (Count)
system.cpu0.statIssuedInstType_0::No_OpClass        37972      0.35%      0.35% # Number of instructions issued per FU type, per thread (Count)
system.cpu0.statIssuedInstType_0::IntAlu      6163646     57.28%     57.63% # Number of instructions issued per FU type, per thread (Count)
system.cpu0.statIssuedInstType_0::IntMult         4152      0.04%     57.67% # Number of instructions issued per FU type, per thread (Count)
system.cpu0.statIssuedInstType_0::IntDiv        36925      0.34%     58.01% # Number of instructions issued per FU type, per thread (Count)
system.cpu0.statIssuedInstType_0::FloatAdd       786287      7.31%     65.32% # Number of instructions issued per FU type, per thread (Count)
system.cpu0.statIssuedInstType_0::FloatCmp            0      0.00%     65.32% # Number of instructions issued per FU type, per thread (Count)
system.cpu0.statIssuedInstType_0::FloatCvt          160      0.00%     65.32% # Number of instructions issued per FU type, per thread (Count)
system.cpu0.statIssuedInstType_0::FloatMult            0      0.00%     65.32% # Number of instructions issued per FU type, per thread (Count)
system.cpu0.statIssuedInstType_0::FloatMultAcc            0      0.00%     65.32% # Number of instructions issued per FU type, per thread (Count)
system.cpu0.statIssuedInstType_0::FloatDiv            0      0.00%     65.32% # Number of instructions issued per FU type, per thread (Count)
system.cpu0.statIssuedInstType_0::FloatMisc            0      0.00%     65.32% # Number of instructions issued per FU type, per thread (Count)
system.cpu0.statIssuedInstType_0::FloatSqrt            0      0.00%     65.32% # Number of instructions issued per FU type, per thread (Count)
system.cpu0.statIssuedInstType_0::SimdAdd         6184      0.06%     65.38% # Number of instructions issued per FU type, per thread (Count)
system.cpu0.statIssuedInstType_0::SimdAddAcc            0      0.00%     65.38% # Number of instructions issued per FU type, per thread (Count)
system.cpu0.statIssuedInstType_0::SimdAlu       316706      2.94%     68.32% # Number of instructions issued per FU type, per thread (Count)
system.cpu0.statIssuedInstType_0::SimdCmp            0      0.00%     68.32% # Number of instructions issued per FU type, per thread (Count)
system.cpu0.statIssuedInstType_0::SimdCvt        13201      0.12%     68.44% # Number of instructions issued per FU type, per thread (Count)
system.cpu0.statIssuedInstType_0::SimdMisc        66414      0.62%     69.06% # Number of instructions issued per FU type, per thread (Count)
system.cpu0.statIssuedInstType_0::SimdMult            0      0.00%     69.06% # Number of instructions issued per FU type, per thread (Count)
system.cpu0.statIssuedInstType_0::SimdMultAcc            0      0.00%     69.06% # Number of instructions issued per FU type, per thread (Count)
system.cpu0.statIssuedInstType_0::SimdMatMultAcc            0      0.00%     69.06% # Number of instructions issued per FU type, per thread (Count)
system.cpu0.statIssuedInstType_0::SimdShift         1199      0.01%     69.07% # Number of instructions issued per FU type, per thread (Count)
system.cpu0.statIssuedInstType_0::SimdShiftAcc            0      0.00%     69.07% # Number of instructions issued per FU type, per thread (Count)
system.cpu0.statIssuedInstType_0::SimdDiv            0      0.00%     69.07% # Number of instructions issued per FU type, per thread (Count)
system.cpu0.statIssuedInstType_0::SimdSqrt            0      0.00%     69.07% # Number of instructions issued per FU type, per thread (Count)
system.cpu0.statIssuedInstType_0::SimdFloatAdd       351204      3.26%     72.34% # Number of instructions issued per FU type, per thread (Count)
system.cpu0.statIssuedInstType_0::SimdFloatAlu            0      0.00%     72.34% # Number of instructions issued per FU type, per thread (Count)
system.cpu0.statIssuedInstType_0::SimdFloatCmp            0      0.00%     72.34% # Number of instructions issued per FU type, per thread (Count)
system.cpu0.statIssuedInstType_0::SimdFloatCvt        95995      0.89%     73.23% # Number of instructions issued per FU type, per thread (Count)
system.cpu0.statIssuedInstType_0::SimdFloatDiv        22529      0.21%     73.44% # Number of instructions issued per FU type, per thread (Count)
system.cpu0.statIssuedInstType_0::SimdFloatMisc            0      0.00%     73.44% # Number of instructions issued per FU type, per thread (Count)
system.cpu0.statIssuedInstType_0::SimdFloatMult       320253      2.98%     76.41% # Number of instructions issued per FU type, per thread (Count)
system.cpu0.statIssuedInstType_0::SimdFloatMultAcc            0      0.00%     76.41% # Number of instructions issued per FU type, per thread (Count)
system.cpu0.statIssuedInstType_0::SimdFloatMatMultAcc            0      0.00%     76.41% # Number of instructions issued per FU type, per thread (Count)
system.cpu0.statIssuedInstType_0::SimdFloatSqrt            0      0.00%     76.41% # Number of instructions issued per FU type, per thread (Count)
system.cpu0.statIssuedInstType_0::SimdReduceAdd            0      0.00%     76.41% # Number of instructions issued per FU type, per thread (Count)
system.cpu0.statIssuedInstType_0::SimdReduceAlu            0      0.00%     76.41% # Number of instructions issued per FU type, per thread (Count)
system.cpu0.statIssuedInstType_0::SimdReduceCmp            0      0.00%     76.41% # Number of instructions issued per FU type, per thread (Count)
system.cpu0.statIssuedInstType_0::SimdFloatReduceAdd            0      0.00%     76.41% # Number of instructions issued per FU type, per thread (Count)
system.cpu0.statIssuedInstType_0::SimdFloatReduceCmp            0      0.00%     76.41% # Number of instructions issued per FU type, per thread (Count)
system.cpu0.statIssuedInstType_0::SimdAes            0      0.00%     76.41% # Number of instructions issued per FU type, per thread (Count)
system.cpu0.statIssuedInstType_0::SimdAesMix            0      0.00%     76.41% # Number of instructions issued per FU type, per thread (Count)
system.cpu0.statIssuedInstType_0::SimdSha1Hash            0      0.00%     76.41% # Number of instructions issued per FU type, per thread (Count)
system.cpu0.statIssuedInstType_0::SimdSha1Hash2            0      0.00%     76.41% # Number of instructions issued per FU type, per thread (Count)
system.cpu0.statIssuedInstType_0::SimdSha256Hash            0      0.00%     76.41% # Number of instructions issued per FU type, per thread (Count)
system.cpu0.statIssuedInstType_0::SimdSha256Hash2            0      0.00%     76.41% # Number of instructions issued per FU type, per thread (Count)
system.cpu0.statIssuedInstType_0::SimdShaSigma2            0      0.00%     76.41% # Number of instructions issued per FU type, per thread (Count)
system.cpu0.statIssuedInstType_0::SimdShaSigma3            0      0.00%     76.41% # Number of instructions issued per FU type, per thread (Count)
system.cpu0.statIssuedInstType_0::SimdPredAlu            0      0.00%     76.41% # Number of instructions issued per FU type, per thread (Count)
system.cpu0.statIssuedInstType_0::Matrix            0      0.00%     76.41% # Number of instructions issued per FU type, per thread (Count)
system.cpu0.statIssuedInstType_0::MatrixMov            0      0.00%     76.41% # Number of instructions issued per FU type, per thread (Count)
system.cpu0.statIssuedInstType_0::MatrixOP            0      0.00%     76.41% # Number of instructions issued per FU type, per thread (Count)
system.cpu0.statIssuedInstType_0::MemRead      1151436     10.70%     87.11% # Number of instructions issued per FU type, per thread (Count)
system.cpu0.statIssuedInstType_0::MemWrite       510120      4.74%     91.85% # Number of instructions issued per FU type, per thread (Count)
system.cpu0.statIssuedInstType_0::FloatMemRead       712369      6.62%     98.47% # Number of instructions issued per FU type, per thread (Count)
system.cpu0.statIssuedInstType_0::FloatMemWrite       164226      1.53%    100.00% # Number of instructions issued per FU type, per thread (Count)
system.cpu0.statIssuedInstType_0::IprAccess            0      0.00%    100.00% # Number of instructions issued per FU type, per thread (Count)
system.cpu0.statIssuedInstType_0::InstPrefetch            0      0.00%    100.00% # Number of instructions issued per FU type, per thread (Count)
system.cpu0.statIssuedInstType_0::VectorUnitStrideLoad            0      0.00%    100.00% # Number of instructions issued per FU type, per thread (Count)
system.cpu0.statIssuedInstType_0::VectorUnitStrideStore            0      0.00%    100.00% # Number of instructions issued per FU type, per thread (Count)
system.cpu0.statIssuedInstType_0::VectorUnitStrideMaskLoad            0      0.00%    100.00% # Number of instructions issued per FU type, per thread (Count)
system.cpu0.statIssuedInstType_0::VectorUnitStrideMaskStore            0      0.00%    100.00% # Number of instructions issued per FU type, per thread (Count)
system.cpu0.statIssuedInstType_0::VectorStridedLoad            0      0.00%    100.00% # Number of instructions issued per FU type, per thread (Count)
system.cpu0.statIssuedInstType_0::VectorStridedStore            0      0.00%    100.00% # Number of instructions issued per FU type, per thread (Count)
system.cpu0.statIssuedInstType_0::VectorIndexedLoad            0      0.00%    100.00% # Number of instructions issued per FU type, per thread (Count)
system.cpu0.statIssuedInstType_0::VectorIndexedStore            0      0.00%    100.00% # Number of instructions issued per FU type, per thread (Count)
system.cpu0.statIssuedInstType_0::VectorUnitStrideFaultOnlyFirstLoad            0      0.00%    100.00% # Number of instructions issued per FU type, per thread (Count)
system.cpu0.statIssuedInstType_0::VectorWholeRegisterLoad            0      0.00%    100.00% # Number of instructions issued per FU type, per thread (Count)
system.cpu0.statIssuedInstType_0::VectorWholeRegisterStore            0      0.00%    100.00% # Number of instructions issued per FU type, per thread (Count)
system.cpu0.statIssuedInstType_0::VectorIntegerArith            0      0.00%    100.00% # Number of instructions issued per FU type, per thread (Count)
system.cpu0.statIssuedInstType_0::VectorFloatArith            0      0.00%    100.00% # Number of instructions issued per FU type, per thread (Count)
system.cpu0.statIssuedInstType_0::VectorFloatConvert            0      0.00%    100.00% # Number of instructions issued per FU type, per thread (Count)
system.cpu0.statIssuedInstType_0::VectorIntegerReduce            0      0.00%    100.00% # Number of instructions issued per FU type, per thread (Count)
system.cpu0.statIssuedInstType_0::VectorFloatReduce            0      0.00%    100.00% # Number of instructions issued per FU type, per thread (Count)
system.cpu0.statIssuedInstType_0::VectorMisc            0      0.00%    100.00% # Number of instructions issued per FU type, per thread (Count)
system.cpu0.statIssuedInstType_0::VectorIntegerExtension            0      0.00%    100.00% # Number of instructions issued per FU type, per thread (Count)
system.cpu0.statIssuedInstType_0::VectorConfig            0      0.00%    100.00% # Number of instructions issued per FU type, per thread (Count)
system.cpu0.statIssuedInstType_0::total      10760978                       # Number of instructions issued per FU type, per thread (Count)
system.cpu0.issueRate                        2.484120                       # Inst issue rate ((Count/Cycle))
system.cpu0.fuBusy                             103461                       # FU busy when requested (Count)
system.cpu0.fuBusyRate                       0.009614                       # FU busy rate (busy events/executed inst) ((Count/Count))
system.cpu0.intInstQueueReads                19438838                       # Number of integer instruction queue reads (Count)
system.cpu0.intInstQueueWrites                9044259                       # Number of integer instruction queue writes (Count)
system.cpu0.intInstQueueWakeupAccesses        7516189                       # Number of integer instruction queue wakeup accesses (Count)
system.cpu0.fpInstQueueReads                  6366917                       # Number of floating instruction queue reads (Count)
system.cpu0.fpInstQueueWrites                 3251329                       # Number of floating instruction queue writes (Count)
system.cpu0.fpInstQueueWakeupAccesses         3135680                       # Number of floating instruction queue wakeup accesses (Count)
system.cpu0.vecInstQueueReads                       0                       # Number of vector instruction queue reads (Count)
system.cpu0.vecInstQueueWrites                      0                       # Number of vector instruction queue writes (Count)
system.cpu0.vecInstQueueWakeupAccesses              0                       # Number of vector instruction queue wakeup accesses (Count)
system.cpu0.intAluAccesses                    7632898                       # Number of integer alu accesses (Count)
system.cpu0.fpAluAccesses                     3193569                       # Number of floating point alu accesses (Count)
system.cpu0.vecAluAccesses                          0                       # Number of vector alu accesses (Count)
system.cpu0.numSquashedInsts                    25104                       # Number of squashed instructions skipped in execute (Count)
system.cpu0.numSwp                                  0                       # Number of swp insts executed (Count)
system.cpu0.timesIdled                           1276                       # Number of times that the entire CPU went into an idle state and unscheduled itself (Count)
system.cpu0.idleCycles                         153309                       # Total number of cycles that the CPU has spent unscheduled due to idling (Cycle)
system.cpu0.MemDepUnit__0.insertedLoads       1857721                       # Number of loads inserted to the mem dependence unit. (Count)
system.cpu0.MemDepUnit__0.insertedStores       704423                       # Number of stores inserted to the mem dependence unit. (Count)
system.cpu0.MemDepUnit__0.conflictingLoads       531805                       # Number of conflicting loads. (Count)
system.cpu0.MemDepUnit__0.conflictingStores       148366                       # Number of conflicting stores. (Count)
system.cpu0.MemDepUnit__1.insertedLoads             0                       # Number of loads inserted to the mem dependence unit. (Count)
system.cpu0.MemDepUnit__1.insertedStores            0                       # Number of stores inserted to the mem dependence unit. (Count)
system.cpu0.MemDepUnit__1.conflictingLoads            0                       # Number of conflicting loads. (Count)
system.cpu0.MemDepUnit__1.conflictingStores            0                       # Number of conflicting stores. (Count)
system.cpu0.MemDepUnit__2.insertedLoads             0                       # Number of loads inserted to the mem dependence unit. (Count)
system.cpu0.MemDepUnit__2.insertedStores            0                       # Number of stores inserted to the mem dependence unit. (Count)
system.cpu0.MemDepUnit__2.conflictingLoads            0                       # Number of conflicting loads. (Count)
system.cpu0.MemDepUnit__2.conflictingStores            0                       # Number of conflicting stores. (Count)
system.cpu0.MemDepUnit__3.insertedLoads             0                       # Number of loads inserted to the mem dependence unit. (Count)
system.cpu0.MemDepUnit__3.insertedStores            0                       # Number of stores inserted to the mem dependence unit. (Count)
system.cpu0.MemDepUnit__3.conflictingLoads            0                       # Number of conflicting loads. (Count)
system.cpu0.MemDepUnit__3.conflictingStores            0                       # Number of conflicting stores. (Count)
system.cpu0.branchPred.lookups_0::NoBranch          612      0.08%      0.08% # Number of BP lookups (Count)
system.cpu0.branchPred.lookups_0::Return        37263      4.72%      4.79% # Number of BP lookups (Count)
system.cpu0.branchPred.lookups_0::CallDirect        41071      5.20%      9.99% # Number of BP lookups (Count)
system.cpu0.branchPred.lookups_0::CallIndirect         1061      0.13%     10.12% # Number of BP lookups (Count)
system.cpu0.branchPred.lookups_0::DirectCond       588179     74.43%     84.56% # Number of BP lookups (Count)
system.cpu0.branchPred.lookups_0::DirectUncond        94355     11.94%     96.50% # Number of BP lookups (Count)
system.cpu0.branchPred.lookups_0::IndirectCond            0      0.00%     96.50% # Number of BP lookups (Count)
system.cpu0.branchPred.lookups_0::IndirectUncond        27666      3.50%    100.00% # Number of BP lookups (Count)
system.cpu0.branchPred.lookups_0::total        790207                       # Number of BP lookups (Count)
system.cpu0.branchPred.squashes_0::NoBranch          563      0.44%      0.44% # Number of branches that got squashed (completely removed) as an earlier branch was mispredicted. (Count)
system.cpu0.branchPred.squashes_0::Return         2837      2.20%      2.63% # Number of branches that got squashed (completely removed) as an earlier branch was mispredicted. (Count)
system.cpu0.branchPred.squashes_0::CallDirect         7061      5.47%      8.10% # Number of branches that got squashed (completely removed) as an earlier branch was mispredicted. (Count)
system.cpu0.branchPred.squashes_0::CallIndirect          640      0.50%      8.59% # Number of branches that got squashed (completely removed) as an earlier branch was mispredicted. (Count)
system.cpu0.branchPred.squashes_0::DirectCond       102553     79.38%     87.97% # Number of branches that got squashed (completely removed) as an earlier branch was mispredicted. (Count)
system.cpu0.branchPred.squashes_0::DirectUncond        14099     10.91%     98.88% # Number of branches that got squashed (completely removed) as an earlier branch was mispredicted. (Count)
system.cpu0.branchPred.squashes_0::IndirectCond            0      0.00%     98.88% # Number of branches that got squashed (completely removed) as an earlier branch was mispredicted. (Count)
system.cpu0.branchPred.squashes_0::IndirectUncond         1445      1.12%    100.00% # Number of branches that got squashed (completely removed) as an earlier branch was mispredicted. (Count)
system.cpu0.branchPred.squashes_0::total       129198                       # Number of branches that got squashed (completely removed) as an earlier branch was mispredicted. (Count)
system.cpu0.branchPred.corrected_0::NoBranch          117      0.81%      0.81% # Number of branches that got corrected but not yet commited. Branches get corrected by decode or after execute. Also a branch misprediction can be detected out-of-order. Therefore, a corrected branch might not end up beeing committed in case an even earlier branch was mispredicted (Count)
system.cpu0.branchPred.corrected_0::Return            9      0.06%      0.87% # Number of branches that got corrected but not yet commited. Branches get corrected by decode or after execute. Also a branch misprediction can be detected out-of-order. Therefore, a corrected branch might not end up beeing committed in case an even earlier branch was mispredicted (Count)
system.cpu0.branchPred.corrected_0::CallDirect          333      2.30%      3.17% # Number of branches that got corrected but not yet commited. Branches get corrected by decode or after execute. Also a branch misprediction can be detected out-of-order. Therefore, a corrected branch might not end up beeing committed in case an even earlier branch was mispredicted (Count)
system.cpu0.branchPred.corrected_0::CallIndirect          223      1.54%      4.72% # Number of branches that got corrected but not yet commited. Branches get corrected by decode or after execute. Also a branch misprediction can be detected out-of-order. Therefore, a corrected branch might not end up beeing committed in case an even earlier branch was mispredicted (Count)
system.cpu0.branchPred.corrected_0::DirectCond        13080     90.43%     95.15% # Number of branches that got corrected but not yet commited. Branches get corrected by decode or after execute. Also a branch misprediction can be detected out-of-order. Therefore, a corrected branch might not end up beeing committed in case an even earlier branch was mispredicted (Count)
system.cpu0.branchPred.corrected_0::DirectUncond          355      2.45%     97.60% # Number of branches that got corrected but not yet commited. Branches get corrected by decode or after execute. Also a branch misprediction can be detected out-of-order. Therefore, a corrected branch might not end up beeing committed in case an even earlier branch was mispredicted (Count)
system.cpu0.branchPred.corrected_0::IndirectCond            0      0.00%     97.60% # Number of branches that got corrected but not yet commited. Branches get corrected by decode or after execute. Also a branch misprediction can be detected out-of-order. Therefore, a corrected branch might not end up beeing committed in case an even earlier branch was mispredicted (Count)
system.cpu0.branchPred.corrected_0::IndirectUncond          347      2.40%    100.00% # Number of branches that got corrected but not yet commited. Branches get corrected by decode or after execute. Also a branch misprediction can be detected out-of-order. Therefore, a corrected branch might not end up beeing committed in case an even earlier branch was mispredicted (Count)
system.cpu0.branchPred.corrected_0::total        14464                       # Number of branches that got corrected but not yet commited. Branches get corrected by decode or after execute. Also a branch misprediction can be detected out-of-order. Therefore, a corrected branch might not end up beeing committed in case an even earlier branch was mispredicted (Count)
system.cpu0.branchPred.earlyResteers_0::NoBranch            0                       # Number of branches that got redirected after decode. (Count)
system.cpu0.branchPred.earlyResteers_0::Return            0                       # Number of branches that got redirected after decode. (Count)
system.cpu0.branchPred.earlyResteers_0::CallDirect            0                       # Number of branches that got redirected after decode. (Count)
system.cpu0.branchPred.earlyResteers_0::CallIndirect            0                       # Number of branches that got redirected after decode. (Count)
system.cpu0.branchPred.earlyResteers_0::DirectCond            0                       # Number of branches that got redirected after decode. (Count)
system.cpu0.branchPred.earlyResteers_0::DirectUncond            0                       # Number of branches that got redirected after decode. (Count)
system.cpu0.branchPred.earlyResteers_0::IndirectCond            0                       # Number of branches that got redirected after decode. (Count)
system.cpu0.branchPred.earlyResteers_0::IndirectUncond            0                       # Number of branches that got redirected after decode. (Count)
system.cpu0.branchPred.earlyResteers_0::total            0                       # Number of branches that got redirected after decode. (Count)
system.cpu0.branchPred.committed_0::NoBranch           49      0.01%      0.01% # Number of branches finally committed  (Count)
system.cpu0.branchPred.committed_0::Return        34426      5.21%      5.22% # Number of branches finally committed  (Count)
system.cpu0.branchPred.committed_0::CallDirect        34010      5.15%     10.36% # Number of branches finally committed  (Count)
system.cpu0.branchPred.committed_0::CallIndirect          421      0.06%     10.42% # Number of branches finally committed  (Count)
system.cpu0.branchPred.committed_0::DirectCond       485626     73.47%     83.89% # Number of branches finally committed  (Count)
system.cpu0.branchPred.committed_0::DirectUncond        80256     12.14%     96.03% # Number of branches finally committed  (Count)
system.cpu0.branchPred.committed_0::IndirectCond            0      0.00%     96.03% # Number of branches finally committed  (Count)
system.cpu0.branchPred.committed_0::IndirectUncond        26221      3.97%    100.00% # Number of branches finally committed  (Count)
system.cpu0.branchPred.committed_0::total       661009                       # Number of branches finally committed  (Count)
system.cpu0.branchPred.mispredicted_0::NoBranch           49      0.36%      0.36% # Number of committed branches that were mispredicted. (Count)
system.cpu0.branchPred.mispredicted_0::Return            0      0.00%      0.36% # Number of committed branches that were mispredicted. (Count)
system.cpu0.branchPred.mispredicted_0::CallDirect          169      1.25%      1.62% # Number of committed branches that were mispredicted. (Count)
system.cpu0.branchPred.mispredicted_0::CallIndirect          193      1.43%      3.05% # Number of committed branches that were mispredicted. (Count)
system.cpu0.branchPred.mispredicted_0::DirectCond        12560     93.09%     96.13% # Number of committed branches that were mispredicted. (Count)
system.cpu0.branchPred.mispredicted_0::DirectUncond          197      1.46%     97.59% # Number of committed branches that were mispredicted. (Count)
system.cpu0.branchPred.mispredicted_0::IndirectCond            0      0.00%     97.59% # Number of committed branches that were mispredicted. (Count)
system.cpu0.branchPred.mispredicted_0::IndirectUncond          325      2.41%    100.00% # Number of committed branches that were mispredicted. (Count)
system.cpu0.branchPred.mispredicted_0::total        13493                       # Number of committed branches that were mispredicted. (Count)
system.cpu0.branchPred.targetProvider_0::NoTarget       347983     44.04%     44.04% # The component providing the target for taken branches (Count)
system.cpu0.branchPred.targetProvider_0::BTB       378049     47.84%     91.88% # The component providing the target for taken branches (Count)
system.cpu0.branchPred.targetProvider_0::RAS        37263      4.72%     96.59% # The component providing the target for taken branches (Count)
system.cpu0.branchPred.targetProvider_0::Indirect        26912      3.41%    100.00% # The component providing the target for taken branches (Count)
system.cpu0.branchPred.targetProvider_0::total       790207                       # The component providing the target for taken branches (Count)
system.cpu0.branchPred.targetWrong_0::NoBranch         8187     62.93%     62.93% # Number of branches where the target was incorrect or not available at prediction time. (Count)
system.cpu0.branchPred.targetWrong_0::Return         4770     36.66%     99.59% # Number of branches where the target was incorrect or not available at prediction time. (Count)
system.cpu0.branchPred.targetWrong_0::CallDirect            9      0.07%     99.66% # Number of branches where the target was incorrect or not available at prediction time. (Count)
system.cpu0.branchPred.targetWrong_0::CallIndirect           44      0.34%    100.00% # Number of branches where the target was incorrect or not available at prediction time. (Count)
system.cpu0.branchPred.targetWrong_0::DirectCond            0      0.00%    100.00% # Number of branches where the target was incorrect or not available at prediction time. (Count)
system.cpu0.branchPred.targetWrong_0::DirectUncond            0      0.00%    100.00% # Number of branches where the target was incorrect or not available at prediction time. (Count)
system.cpu0.branchPred.targetWrong_0::IndirectCond            0      0.00%    100.00% # Number of branches where the target was incorrect or not available at prediction time. (Count)
system.cpu0.branchPred.targetWrong_0::IndirectUncond            0      0.00%    100.00% # Number of branches where the target was incorrect or not available at prediction time. (Count)
system.cpu0.branchPred.targetWrong_0::total        13010                       # Number of branches where the target was incorrect or not available at prediction time. (Count)
system.cpu0.branchPred.condPredicted           588791                       # Number of conditional branches predicted (Count)
system.cpu0.branchPred.condPredictedTaken       245246                       # Number of conditional branches predicted as taken (Count)
system.cpu0.branchPred.condIncorrect            14464                       # Number of conditional branches incorrect (Count)
system.cpu0.branchPred.predTakenBTBMiss           887                       # Number of branches predicted taken but missed in BTB (Count)
system.cpu0.branchPred.NotTakenMispredicted         9112                       # Number branches predicted 'not taken' but turned out to be taken (Count)
system.cpu0.branchPred.TakenMispredicted         5352                       # Number branches predicted taken but are actually not taken (Count)
system.cpu0.branchPred.BTBLookups              790207                       # Number of BTB lookups (Count)
system.cpu0.branchPred.BTBUpdates                8416                       # Number of BTB updates (Count)
system.cpu0.branchPred.BTBHits                 522934                       # Number of BTB hits (Count)
system.cpu0.branchPred.BTBHitRatio           0.661768                       # BTB Hit Ratio (Ratio)
system.cpu0.branchPred.BTBMispredicted           1506                       # Number BTB mispredictions. No target found or target wrong (Count)
system.cpu0.branchPred.indirectLookups          28727                       # Number of indirect predictor lookups. (Count)
system.cpu0.branchPred.indirectHits             26912                       # Number of indirect target hits. (Count)
system.cpu0.branchPred.indirectMisses            1815                       # Number of indirect misses. (Count)
system.cpu0.branchPred.indirectMispredicted            0                       # Number of mispredicted indirect branches. (Count)
system.cpu0.branchPred.btb.lookups::NoBranch          612      0.08%      0.08% # Number of BTB lookups (Count)
system.cpu0.branchPred.btb.lookups::Return        37263      4.72%      4.79% # Number of BTB lookups (Count)
system.cpu0.branchPred.btb.lookups::CallDirect        41071      5.20%      9.99% # Number of BTB lookups (Count)
system.cpu0.branchPred.btb.lookups::CallIndirect         1061      0.13%     10.12% # Number of BTB lookups (Count)
system.cpu0.branchPred.btb.lookups::DirectCond       588179     74.43%     84.56% # Number of BTB lookups (Count)
system.cpu0.branchPred.btb.lookups::DirectUncond        94355     11.94%     96.50% # Number of BTB lookups (Count)
system.cpu0.branchPred.btb.lookups::IndirectCond            0      0.00%     96.50% # Number of BTB lookups (Count)
system.cpu0.branchPred.btb.lookups::IndirectUncond        27666      3.50%    100.00% # Number of BTB lookups (Count)
system.cpu0.branchPred.btb.lookups::total       790207                       # Number of BTB lookups (Count)
system.cpu0.branchPred.btb.misses::NoBranch          198      0.07%      0.07% # Number of BTB misses (Count)
system.cpu0.branchPred.btb.misses::Return        37263     13.94%     14.02% # Number of BTB misses (Count)
system.cpu0.branchPred.btb.misses::CallDirect          530      0.20%     14.21% # Number of BTB misses (Count)
system.cpu0.branchPred.btb.misses::CallIndirect         1061      0.40%     14.61% # Number of BTB misses (Count)
system.cpu0.branchPred.btb.misses::DirectCond       200078     74.86%     89.47% # Number of BTB misses (Count)
system.cpu0.branchPred.btb.misses::DirectUncond          477      0.18%     89.65% # Number of BTB misses (Count)
system.cpu0.branchPred.btb.misses::IndirectCond            0      0.00%     89.65% # Number of BTB misses (Count)
system.cpu0.branchPred.btb.misses::IndirectUncond        27666     10.35%    100.00% # Number of BTB misses (Count)
system.cpu0.branchPred.btb.misses::total       267273                       # Number of BTB misses (Count)
system.cpu0.branchPred.btb.updates::NoBranch            0      0.00%      0.00% # Number of BTB updates (Count)
system.cpu0.branchPred.btb.updates::Return            0      0.00%      0.00% # Number of BTB updates (Count)
system.cpu0.branchPred.btb.updates::CallDirect          333      3.96%      3.96% # Number of BTB updates (Count)
system.cpu0.branchPred.btb.updates::CallIndirect            0      0.00%      3.96% # Number of BTB updates (Count)
system.cpu0.branchPred.btb.updates::DirectCond         7728     91.83%     95.78% # Number of BTB updates (Count)
system.cpu0.branchPred.btb.updates::DirectUncond          355      4.22%    100.00% # Number of BTB updates (Count)
system.cpu0.branchPred.btb.updates::IndirectCond            0      0.00%    100.00% # Number of BTB updates (Count)
system.cpu0.branchPred.btb.updates::IndirectUncond            0      0.00%    100.00% # Number of BTB updates (Count)
system.cpu0.branchPred.btb.updates::total         8416                       # Number of BTB updates (Count)
system.cpu0.branchPred.btb.mispredict::NoBranch            0      0.00%      0.00% # Number of BTB mispredictions. No target found or target wrong. (Count)
system.cpu0.branchPred.btb.mispredict::Return            0      0.00%      0.00% # Number of BTB mispredictions. No target found or target wrong. (Count)
system.cpu0.branchPred.btb.mispredict::CallDirect          333      3.96%      3.96% # Number of BTB mispredictions. No target found or target wrong. (Count)
system.cpu0.branchPred.btb.mispredict::CallIndirect            0      0.00%      3.96% # Number of BTB mispredictions. No target found or target wrong. (Count)
system.cpu0.branchPred.btb.mispredict::DirectCond         7728     91.83%     95.78% # Number of BTB mispredictions. No target found or target wrong. (Count)
system.cpu0.branchPred.btb.mispredict::DirectUncond          355      4.22%    100.00% # Number of BTB mispredictions. No target found or target wrong. (Count)
system.cpu0.branchPred.btb.mispredict::IndirectCond            0      0.00%    100.00% # Number of BTB mispredictions. No target found or target wrong. (Count)
system.cpu0.branchPred.btb.mispredict::IndirectUncond            0      0.00%    100.00% # Number of BTB mispredictions. No target found or target wrong. (Count)
system.cpu0.branchPred.btb.mispredict::total         8416                       # Number of BTB mispredictions. No target found or target wrong. (Count)
system.cpu0.branchPred.btb.power_state.pwrStateResidencyTicks::UNDEFINED   2239193000                       # Cumulative time (in ticks) in various power states (Tick)
system.cpu0.branchPred.indirectBranchPred.lookups        28727                       # Number of lookups (Count)
system.cpu0.branchPred.indirectBranchPred.hits        26912                       # Number of hits of a tag (Count)
system.cpu0.branchPred.indirectBranchPred.misses         1815                       # Number of misses (Count)
system.cpu0.branchPred.indirectBranchPred.targetRecords          570                       # Number of targets that where recorded/installed in the cache (Count)
system.cpu0.branchPred.indirectBranchPred.indirectRecords        29297                       # Number of indirect branches/calls recorded in the indirect hist (Count)
system.cpu0.branchPred.indirectBranchPred.speculativeOverflows            1                       # Number of times more than the allowed capacity for speculative branches/calls where in flight and destroy the path history (Count)
system.cpu0.branchPred.ras.pushes               44969                       # Number of times a PC was pushed onto the RAS (Count)
system.cpu0.branchPred.ras.pops                 44964                       # Number of times a PC was poped from the RAS (Count)
system.cpu0.branchPred.ras.squashes             10538                       # Number of times the stack operation was squashed due to wrong speculation. (Count)
system.cpu0.branchPred.ras.used                 34426                       # Number of times the RAS is the provider (Count)
system.cpu0.branchPred.ras.correct              34426                       # Number of times the RAS is the provider and the prediction is correct (Count)
system.cpu0.branchPred.ras.incorrect                0                       # Number of times the RAS is the provider and the prediction is wrong (Count)
system.cpu0.commit.commitSquashedInsts        1100278                       # The number of squashed insts skipped by commit (Count)
system.cpu0.commit.commitNonSpecStalls            270                       # The number of times commit has been forced to stall to communicate backwards (Count)
system.cpu0.commit.branchMispredicts            14010                       # The number of times a branch was mispredicted (Count)
system.cpu0.commit.numCommittedDist::samples      4031835                       # Number of insts commited each cycle (Count)
system.cpu0.commit.numCommittedDist::mean     2.500645                       # Number of insts commited each cycle (Count)
system.cpu0.commit.numCommittedDist::stdev     3.040816                       # Number of insts commited each cycle (Count)
system.cpu0.commit.numCommittedDist::underflows            0      0.00%      0.00% # Number of insts commited each cycle (Count)
system.cpu0.commit.numCommittedDist::0        1649904     40.92%     40.92% # Number of insts commited each cycle (Count)
system.cpu0.commit.numCommittedDist::1         703689     17.45%     58.38% # Number of insts commited each cycle (Count)
system.cpu0.commit.numCommittedDist::2         194349      4.82%     63.20% # Number of insts commited each cycle (Count)
system.cpu0.commit.numCommittedDist::3         311895      7.74%     70.93% # Number of insts commited each cycle (Count)
system.cpu0.commit.numCommittedDist::4         151055      3.75%     74.68% # Number of insts commited each cycle (Count)
system.cpu0.commit.numCommittedDist::5         180454      4.48%     79.15% # Number of insts commited each cycle (Count)
system.cpu0.commit.numCommittedDist::6          64591      1.60%     80.76% # Number of insts commited each cycle (Count)
system.cpu0.commit.numCommittedDist::7          47102      1.17%     81.92% # Number of insts commited each cycle (Count)
system.cpu0.commit.numCommittedDist::8         728796     18.08%    100.00% # Number of insts commited each cycle (Count)
system.cpu0.commit.numCommittedDist::overflows            0      0.00%    100.00% # Number of insts commited each cycle (Count)
system.cpu0.commit.numCommittedDist::min_value            0                       # Number of insts commited each cycle (Count)
system.cpu0.commit.numCommittedDist::max_value            8                       # Number of insts commited each cycle (Count)
system.cpu0.commit.numCommittedDist::total      4031835                       # Number of insts commited each cycle (Count)
system.cpu0.commit.amos                             0                       # Number of atomic instructions committed (Count)
system.cpu0.commit.membars                        120                       # Number of memory barriers committed (Count)
system.cpu0.commit.functionCalls                34431                       # Number of function calls committed. (Count)
system.cpu0.commit.committedInstType_0::No_OpClass        33461      0.33%      0.33% # Class of committed instruction (Count)
system.cpu0.commit.committedInstType_0::IntAlu      5717049     56.70%     57.04% # Class of committed instruction (Count)
system.cpu0.commit.committedInstType_0::IntMult         4124      0.04%     57.08% # Class of committed instruction (Count)
system.cpu0.commit.committedInstType_0::IntDiv        34738      0.34%     57.42% # Class of committed instruction (Count)
system.cpu0.commit.committedInstType_0::FloatAdd       778219      7.72%     65.14% # Class of committed instruction (Count)
system.cpu0.commit.committedInstType_0::FloatCmp            0      0.00%     65.14% # Class of committed instruction (Count)
system.cpu0.commit.committedInstType_0::FloatCvt          160      0.00%     65.14% # Class of committed instruction (Count)
system.cpu0.commit.committedInstType_0::FloatMult            0      0.00%     65.14% # Class of committed instruction (Count)
system.cpu0.commit.committedInstType_0::FloatMultAcc            0      0.00%     65.14% # Class of committed instruction (Count)
system.cpu0.commit.committedInstType_0::FloatDiv            0      0.00%     65.14% # Class of committed instruction (Count)
system.cpu0.commit.committedInstType_0::FloatMisc            0      0.00%     65.14% # Class of committed instruction (Count)
system.cpu0.commit.committedInstType_0::FloatSqrt            0      0.00%     65.14% # Class of committed instruction (Count)
system.cpu0.commit.committedInstType_0::SimdAdd         5394      0.05%     65.20% # Class of committed instruction (Count)
system.cpu0.commit.committedInstType_0::SimdAddAcc            0      0.00%     65.20% # Class of committed instruction (Count)
system.cpu0.commit.committedInstType_0::SimdAlu       309807      3.07%     68.27% # Class of committed instruction (Count)
system.cpu0.commit.committedInstType_0::SimdCmp            0      0.00%     68.27% # Class of committed instruction (Count)
system.cpu0.commit.committedInstType_0::SimdCvt        11058      0.11%     68.38% # Class of committed instruction (Count)
system.cpu0.commit.committedInstType_0::SimdMisc        64564      0.64%     69.02% # Class of committed instruction (Count)
system.cpu0.commit.committedInstType_0::SimdMult            0      0.00%     69.02% # Class of committed instruction (Count)
system.cpu0.commit.committedInstType_0::SimdMultAcc            0      0.00%     69.02% # Class of committed instruction (Count)
system.cpu0.commit.committedInstType_0::SimdMatMultAcc            0      0.00%     69.02% # Class of committed instruction (Count)
system.cpu0.commit.committedInstType_0::SimdShift          670      0.01%     69.03% # Class of committed instruction (Count)
system.cpu0.commit.committedInstType_0::SimdShiftAcc            0      0.00%     69.03% # Class of committed instruction (Count)
system.cpu0.commit.committedInstType_0::SimdDiv            0      0.00%     69.03% # Class of committed instruction (Count)
system.cpu0.commit.committedInstType_0::SimdSqrt            0      0.00%     69.03% # Class of committed instruction (Count)
system.cpu0.commit.committedInstType_0::SimdFloatAdd       349405      3.47%     72.49% # Class of committed instruction (Count)
system.cpu0.commit.committedInstType_0::SimdFloatAlu            0      0.00%     72.49% # Class of committed instruction (Count)
system.cpu0.commit.committedInstType_0::SimdFloatCmp            0      0.00%     72.49% # Class of committed instruction (Count)
system.cpu0.commit.committedInstType_0::SimdFloatCvt        95359      0.95%     73.44% # Class of committed instruction (Count)
system.cpu0.commit.committedInstType_0::SimdFloatDiv        22528      0.22%     73.66% # Class of committed instruction (Count)
system.cpu0.commit.committedInstType_0::SimdFloatMisc            0      0.00%     73.66% # Class of committed instruction (Count)
system.cpu0.commit.committedInstType_0::SimdFloatMult       319220      3.17%     76.83% # Class of committed instruction (Count)
system.cpu0.commit.committedInstType_0::SimdFloatMultAcc            0      0.00%     76.83% # Class of committed instruction (Count)
system.cpu0.commit.committedInstType_0::SimdFloatMatMultAcc            0      0.00%     76.83% # Class of committed instruction (Count)
system.cpu0.commit.committedInstType_0::SimdFloatSqrt            0      0.00%     76.83% # Class of committed instruction (Count)
system.cpu0.commit.committedInstType_0::SimdReduceAdd            0      0.00%     76.83% # Class of committed instruction (Count)
system.cpu0.commit.committedInstType_0::SimdReduceAlu            0      0.00%     76.83% # Class of committed instruction (Count)
system.cpu0.commit.committedInstType_0::SimdReduceCmp            0      0.00%     76.83% # Class of committed instruction (Count)
system.cpu0.commit.committedInstType_0::SimdFloatReduceAdd            0      0.00%     76.83% # Class of committed instruction (Count)
system.cpu0.commit.committedInstType_0::SimdFloatReduceCmp            0      0.00%     76.83% # Class of committed instruction (Count)
system.cpu0.commit.committedInstType_0::SimdAes            0      0.00%     76.83% # Class of committed instruction (Count)
system.cpu0.commit.committedInstType_0::SimdAesMix            0      0.00%     76.83% # Class of committed instruction (Count)
system.cpu0.commit.committedInstType_0::SimdSha1Hash            0      0.00%     76.83% # Class of committed instruction (Count)
system.cpu0.commit.committedInstType_0::SimdSha1Hash2            0      0.00%     76.83% # Class of committed instruction (Count)
system.cpu0.commit.committedInstType_0::SimdSha256Hash            0      0.00%     76.83% # Class of committed instruction (Count)
system.cpu0.commit.committedInstType_0::SimdSha256Hash2            0      0.00%     76.83% # Class of committed instruction (Count)
system.cpu0.commit.committedInstType_0::SimdShaSigma2            0      0.00%     76.83% # Class of committed instruction (Count)
system.cpu0.commit.committedInstType_0::SimdShaSigma3            0      0.00%     76.83% # Class of committed instruction (Count)
system.cpu0.commit.committedInstType_0::SimdPredAlu            0      0.00%     76.83% # Class of committed instruction (Count)
system.cpu0.commit.committedInstType_0::Matrix            0      0.00%     76.83% # Class of committed instruction (Count)
system.cpu0.commit.committedInstType_0::MatrixMov            0      0.00%     76.83% # Class of committed instruction (Count)
system.cpu0.commit.committedInstType_0::MatrixOP            0      0.00%     76.83% # Class of committed instruction (Count)
system.cpu0.commit.committedInstType_0::MemRead      1034411     10.26%     87.09% # Class of committed instruction (Count)
system.cpu0.commit.committedInstType_0::MemWrite       471045      4.67%     91.76% # Class of committed instruction (Count)
system.cpu0.commit.committedInstType_0::FloatMemRead       667732      6.62%     98.38% # Class of committed instruction (Count)
system.cpu0.commit.committedInstType_0::FloatMemWrite       163246      1.62%    100.00% # Class of committed instruction (Count)
system.cpu0.commit.committedInstType_0::IprAccess            0      0.00%    100.00% # Class of committed instruction (Count)
system.cpu0.commit.committedInstType_0::InstPrefetch            0      0.00%    100.00% # Class of committed instruction (Count)
system.cpu0.commit.committedInstType_0::VectorUnitStrideLoad            0      0.00%    100.00% # Class of committed instruction (Count)
system.cpu0.commit.committedInstType_0::VectorUnitStrideStore            0      0.00%    100.00% # Class of committed instruction (Count)
system.cpu0.commit.committedInstType_0::VectorUnitStrideMaskLoad            0      0.00%    100.00% # Class of committed instruction (Count)
system.cpu0.commit.committedInstType_0::VectorUnitStrideMaskStore            0      0.00%    100.00% # Class of committed instruction (Count)
system.cpu0.commit.committedInstType_0::VectorStridedLoad            0      0.00%    100.00% # Class of committed instruction (Count)
system.cpu0.commit.committedInstType_0::VectorStridedStore            0      0.00%    100.00% # Class of committed instruction (Count)
system.cpu0.commit.committedInstType_0::VectorIndexedLoad            0      0.00%    100.00% # Class of committed instruction (Count)
system.cpu0.commit.committedInstType_0::VectorIndexedStore            0      0.00%    100.00% # Class of committed instruction (Count)
system.cpu0.commit.committedInstType_0::VectorUnitStrideFaultOnlyFirstLoad            0      0.00%    100.00% # Class of committed instruction (Count)
system.cpu0.commit.committedInstType_0::VectorWholeRegisterLoad            0      0.00%    100.00% # Class of committed instruction (Count)
system.cpu0.commit.committedInstType_0::VectorWholeRegisterStore            0      0.00%    100.00% # Class of committed instruction (Count)
system.cpu0.commit.committedInstType_0::VectorIntegerArith            0      0.00%    100.00% # Class of committed instruction (Count)
system.cpu0.commit.committedInstType_0::VectorFloatArith            0      0.00%    100.00% # Class of committed instruction (Count)
system.cpu0.commit.committedInstType_0::VectorFloatConvert            0      0.00%    100.00% # Class of committed instruction (Count)
system.cpu0.commit.committedInstType_0::VectorIntegerReduce            0      0.00%    100.00% # Class of committed instruction (Count)
system.cpu0.commit.committedInstType_0::VectorFloatReduce            0      0.00%    100.00% # Class of committed instruction (Count)
system.cpu0.commit.committedInstType_0::VectorMisc            0      0.00%    100.00% # Class of committed instruction (Count)
system.cpu0.commit.committedInstType_0::VectorIntegerExtension            0      0.00%    100.00% # Class of committed instruction (Count)
system.cpu0.commit.committedInstType_0::VectorConfig            0      0.00%    100.00% # Class of committed instruction (Count)
system.cpu0.commit.committedInstType_0::total     10082190                       # Class of committed instruction (Count)
system.cpu0.commit.commitEligibleSamples       728796                       # number cycles where commit BW limit reached (Cycle)
system.cpu0.commitStats0.numInsts             5771290                       # Number of instructions committed (thread level) (Count)
system.cpu0.commitStats0.numOps              10082190                       # Number of ops (including micro ops) committed (thread level) (Count)
system.cpu0.commitStats0.numInstsNotNOP       5771290                       # Number of instructions committed excluding NOPs or prefetches (Count)
system.cpu0.commitStats0.numOpsNotNOP        10082190                       # Number of Ops (including micro ops) Simulated (Count)
system.cpu0.commitStats0.cpi                 0.750596                       # CPI: cycles per instruction (thread level) ((Cycle/Count))
system.cpu0.commitStats0.ipc                 1.332275                       # IPC: instructions per cycle (thread level) ((Count/Cycle))
system.cpu0.commitStats0.numMemRefs           2336434                       # Number of memory references committed (Count)
system.cpu0.commitStats0.numFpInsts           3097087                       # Number of float instructions (Count)
system.cpu0.commitStats0.numIntInsts          7836825                       # Number of integer instructions (Count)
system.cpu0.commitStats0.numLoadInsts         1702143                       # Number of load instructions (Count)
system.cpu0.commitStats0.numStoreInsts         634291                       # Number of store instructions (Count)
system.cpu0.commitStats0.numVecInsts                0                       # Number of vector instructions (Count)
system.cpu0.commitStats0.committedInstType::No_OpClass        33461      0.33%      0.33% # Class of committed instruction. (Count)
system.cpu0.commitStats0.committedInstType::IntAlu      5717049     56.70%     57.04% # Class of committed instruction. (Count)
system.cpu0.commitStats0.committedInstType::IntMult         4124      0.04%     57.08% # Class of committed instruction. (Count)
system.cpu0.commitStats0.committedInstType::IntDiv        34738      0.34%     57.42% # Class of committed instruction. (Count)
system.cpu0.commitStats0.committedInstType::FloatAdd       778219      7.72%     65.14% # Class of committed instruction. (Count)
system.cpu0.commitStats0.committedInstType::FloatCmp            0      0.00%     65.14% # Class of committed instruction. (Count)
system.cpu0.commitStats0.committedInstType::FloatCvt          160      0.00%     65.14% # Class of committed instruction. (Count)
system.cpu0.commitStats0.committedInstType::FloatMult            0      0.00%     65.14% # Class of committed instruction. (Count)
system.cpu0.commitStats0.committedInstType::FloatMultAcc            0      0.00%     65.14% # Class of committed instruction. (Count)
system.cpu0.commitStats0.committedInstType::FloatDiv            0      0.00%     65.14% # Class of committed instruction. (Count)
system.cpu0.commitStats0.committedInstType::FloatMisc            0      0.00%     65.14% # Class of committed instruction. (Count)
system.cpu0.commitStats0.committedInstType::FloatSqrt            0      0.00%     65.14% # Class of committed instruction. (Count)
system.cpu0.commitStats0.committedInstType::SimdAdd         5394      0.05%     65.20% # Class of committed instruction. (Count)
system.cpu0.commitStats0.committedInstType::SimdAddAcc            0      0.00%     65.20% # Class of committed instruction. (Count)
system.cpu0.commitStats0.committedInstType::SimdAlu       309807      3.07%     68.27% # Class of committed instruction. (Count)
system.cpu0.commitStats0.committedInstType::SimdCmp            0      0.00%     68.27% # Class of committed instruction. (Count)
system.cpu0.commitStats0.committedInstType::SimdCvt        11058      0.11%     68.38% # Class of committed instruction. (Count)
system.cpu0.commitStats0.committedInstType::SimdMisc        64564      0.64%     69.02% # Class of committed instruction. (Count)
system.cpu0.commitStats0.committedInstType::SimdMult            0      0.00%     69.02% # Class of committed instruction. (Count)
system.cpu0.commitStats0.committedInstType::SimdMultAcc            0      0.00%     69.02% # Class of committed instruction. (Count)
system.cpu0.commitStats0.committedInstType::SimdMatMultAcc            0      0.00%     69.02% # Class of committed instruction. (Count)
system.cpu0.commitStats0.committedInstType::SimdShift          670      0.01%     69.03% # Class of committed instruction. (Count)
system.cpu0.commitStats0.committedInstType::SimdShiftAcc            0      0.00%     69.03% # Class of committed instruction. (Count)
system.cpu0.commitStats0.committedInstType::SimdDiv            0      0.00%     69.03% # Class of committed instruction. (Count)
system.cpu0.commitStats0.committedInstType::SimdSqrt            0      0.00%     69.03% # Class of committed instruction. (Count)
system.cpu0.commitStats0.committedInstType::SimdFloatAdd       349405      3.47%     72.49% # Class of committed instruction. (Count)
system.cpu0.commitStats0.committedInstType::SimdFloatAlu            0      0.00%     72.49% # Class of committed instruction. (Count)
system.cpu0.commitStats0.committedInstType::SimdFloatCmp            0      0.00%     72.49% # Class of committed instruction. (Count)
system.cpu0.commitStats0.committedInstType::SimdFloatCvt        95359      0.95%     73.44% # Class of committed instruction. (Count)
system.cpu0.commitStats0.committedInstType::SimdFloatDiv        22528      0.22%     73.66% # Class of committed instruction. (Count)
system.cpu0.commitStats0.committedInstType::SimdFloatMisc            0      0.00%     73.66% # Class of committed instruction. (Count)
system.cpu0.commitStats0.committedInstType::SimdFloatMult       319220      3.17%     76.83% # Class of committed instruction. (Count)
system.cpu0.commitStats0.committedInstType::SimdFloatMultAcc            0      0.00%     76.83% # Class of committed instruction. (Count)
system.cpu0.commitStats0.committedInstType::SimdFloatMatMultAcc            0      0.00%     76.83% # Class of committed instruction. (Count)
system.cpu0.commitStats0.committedInstType::SimdFloatSqrt            0      0.00%     76.83% # Class of committed instruction. (Count)
system.cpu0.commitStats0.committedInstType::SimdReduceAdd            0      0.00%     76.83% # Class of committed instruction. (Count)
system.cpu0.commitStats0.committedInstType::SimdReduceAlu            0      0.00%     76.83% # Class of committed instruction. (Count)
system.cpu0.commitStats0.committedInstType::SimdReduceCmp            0      0.00%     76.83% # Class of committed instruction. (Count)
system.cpu0.commitStats0.committedInstType::SimdFloatReduceAdd            0      0.00%     76.83% # Class of committed instruction. (Count)
system.cpu0.commitStats0.committedInstType::SimdFloatReduceCmp            0      0.00%     76.83% # Class of committed instruction. (Count)
system.cpu0.commitStats0.committedInstType::SimdAes            0      0.00%     76.83% # Class of committed instruction. (Count)
system.cpu0.commitStats0.committedInstType::SimdAesMix            0      0.00%     76.83% # Class of committed instruction. (Count)
system.cpu0.commitStats0.committedInstType::SimdSha1Hash            0      0.00%     76.83% # Class of committed instruction. (Count)
system.cpu0.commitStats0.committedInstType::SimdSha1Hash2            0      0.00%     76.83% # Class of committed instruction. (Count)
system.cpu0.commitStats0.committedInstType::SimdSha256Hash            0      0.00%     76.83% # Class of committed instruction. (Count)
system.cpu0.commitStats0.committedInstType::SimdSha256Hash2            0      0.00%     76.83% # Class of committed instruction. (Count)
system.cpu0.commitStats0.committedInstType::SimdShaSigma2            0      0.00%     76.83% # Class of committed instruction. (Count)
system.cpu0.commitStats0.committedInstType::SimdShaSigma3            0      0.00%     76.83% # Class of committed instruction. (Count)
system.cpu0.commitStats0.committedInstType::SimdPredAlu            0      0.00%     76.83% # Class of committed instruction. (Count)
system.cpu0.commitStats0.committedInstType::Matrix            0      0.00%     76.83% # Class of committed instruction. (Count)
system.cpu0.commitStats0.committedInstType::MatrixMov            0      0.00%     76.83% # Class of committed instruction. (Count)
system.cpu0.commitStats0.committedInstType::MatrixOP            0      0.00%     76.83% # Class of committed instruction. (Count)
system.cpu0.commitStats0.committedInstType::MemRead      1034411     10.26%     87.09% # Class of committed instruction. (Count)
system.cpu0.commitStats0.committedInstType::MemWrite       471045      4.67%     91.76% # Class of committed instruction. (Count)
system.cpu0.commitStats0.committedInstType::FloatMemRead       667732      6.62%     98.38% # Class of committed instruction. (Count)
system.cpu0.commitStats0.committedInstType::FloatMemWrite       163246      1.62%    100.00% # Class of committed instruction. (Count)
system.cpu0.commitStats0.committedInstType::IprAccess            0      0.00%    100.00% # Class of committed instruction. (Count)
system.cpu0.commitStats0.committedInstType::InstPrefetch            0      0.00%    100.00% # Class of committed instruction. (Count)
system.cpu0.commitStats0.committedInstType::VectorUnitStrideLoad            0      0.00%    100.00% # Class of committed instruction. (Count)
system.cpu0.commitStats0.committedInstType::VectorUnitStrideStore            0      0.00%    100.00% # Class of committed instruction. (Count)
system.cpu0.commitStats0.committedInstType::VectorUnitStrideMaskLoad            0      0.00%    100.00% # Class of committed instruction. (Count)
system.cpu0.commitStats0.committedInstType::VectorUnitStrideMaskStore            0      0.00%    100.00% # Class of committed instruction. (Count)
system.cpu0.commitStats0.committedInstType::VectorStridedLoad            0      0.00%    100.00% # Class of committed instruction. (Count)
system.cpu0.commitStats0.committedInstType::VectorStridedStore            0      0.00%    100.00% # Class of committed instruction. (Count)
system.cpu0.commitStats0.committedInstType::VectorIndexedLoad            0      0.00%    100.00% # Class of committed instruction. (Count)
system.cpu0.commitStats0.committedInstType::VectorIndexedStore            0      0.00%    100.00% # Class of committed instruction. (Count)
system.cpu0.commitStats0.committedInstType::VectorUnitStrideFaultOnlyFirstLoad            0      0.00%    100.00% # Class of committed instruction. (Count)
system.cpu0.commitStats0.committedInstType::VectorWholeRegisterLoad            0      0.00%    100.00% # Class of committed instruction. (Count)
system.cpu0.commitStats0.committedInstType::VectorWholeRegisterStore            0      0.00%    100.00% # Class of committed instruction. (Count)
system.cpu0.commitStats0.committedInstType::VectorIntegerArith            0      0.00%    100.00% # Class of committed instruction. (Count)
system.cpu0.commitStats0.committedInstType::VectorFloatArith            0      0.00%    100.00% # Class of committed instruction. (Count)
system.cpu0.commitStats0.committedInstType::VectorFloatConvert            0      0.00%    100.00% # Class of committed instruction. (Count)
system.cpu0.commitStats0.committedInstType::VectorIntegerReduce            0      0.00%    100.00% # Class of committed instruction. (Count)
system.cpu0.commitStats0.committedInstType::VectorFloatReduce            0      0.00%    100.00% # Class of committed instruction. (Count)
system.cpu0.commitStats0.committedInstType::VectorMisc            0      0.00%    100.00% # Class of committed instruction. (Count)
system.cpu0.commitStats0.committedInstType::VectorIntegerExtension            0      0.00%    100.00% # Class of committed instruction. (Count)
system.cpu0.commitStats0.committedInstType::VectorConfig            0      0.00%    100.00% # Class of committed instruction. (Count)
system.cpu0.commitStats0.committedInstType::total     10082190                       # Class of committed instruction. (Count)
system.cpu0.commitStats0.committedControl::IsControl       661009                       # Class of control type instructions committed (Count)
system.cpu0.commitStats0.committedControl::IsDirectControl       599892                       # Class of control type instructions committed (Count)
system.cpu0.commitStats0.committedControl::IsIndirectControl        61068                       # Class of control type instructions committed (Count)
system.cpu0.commitStats0.committedControl::IsCondControl       485626                       # Class of control type instructions committed (Count)
system.cpu0.commitStats0.committedControl::IsUncondControl       175334                       # Class of control type instructions committed (Count)
system.cpu0.commitStats0.committedControl::IsCall        34431                       # Class of control type instructions committed (Count)
system.cpu0.commitStats0.committedControl::IsReturn        34426                       # Class of control type instructions committed (Count)
system.cpu0.decode.idleCycles                  671733                       # Number of cycles decode is idle (Cycle)
system.cpu0.decode.blockedCycles              1863947                       # Number of cycles decode is blocked (Cycle)
system.cpu0.decode.runCycles                  1299708                       # Number of cycles decode is running (Cycle)
system.cpu0.decode.unblockCycles               328446                       # Number of cycles decode is unblocking (Cycle)
system.cpu0.decode.squashCycles                 14764                       # Number of cycles decode is squashing (Cycle)
system.cpu0.decode.branchResolved              364495                       # Number of times decode resolved a branch (Count)
system.cpu0.decode.branchMispred                  766                       # Number of times decode detected a branch misprediction (Count)
system.cpu0.decode.decodedInsts              11382519                       # Number of instructions handled by decode (Count)
system.cpu0.decode.squashedInsts                 3877                       # Number of squashed instructions handled by decode (Count)
system.cpu0.executeStats0.numInsts           10735874                       # Number of executed instructions (Count)
system.cpu0.executeStats0.numNop                    0                       # Number of nop insts executed (Count)
system.cpu0.executeStats0.numBranches          687432                       # Number of branches executed (Count)
system.cpu0.executeStats0.numLoadInsts        1858525                       # Number of load instructions executed (Count)
system.cpu0.executeStats0.numStoreInsts        672236                       # Number of stores executed (Count)
system.cpu0.executeStats0.instRate           2.478325                       # Inst execution rate ((Count/Cycle))
system.cpu0.executeStats0.numCCRegReads       3464541                       # Number of times the CC registers were read (Count)
system.cpu0.executeStats0.numCCRegWrites      3221398                       # Number of times the CC registers were written (Count)
system.cpu0.executeStats0.numFpRegReads       3834833                       # Number of times the floating registers were read (Count)
[...]
system.ruby.network.data_traffic_distribution.n4.n11            0                       (Unspecified)
system.ruby.network.data_traffic_distribution.n4.n12            0                       (Unspecified)
system.ruby.network.data_traffic_distribution.n4.n13            0                       (Unspecified)
system.ruby.network.data_traffic_distribution.n4.n14            0                       (Unspecified)
system.ruby.network.data_traffic_distribution.n4.n15            0                       (Unspecified)
system.ruby.network.data_traffic_distribution.n4.n2            0                       (Unspecified)
system.ruby.network.data_traffic_distribution.n4.n3            0                       (Unspecified)
system.ruby.network.data_traffic_distribution.n4.n4            0                       (Unspecified)
system.ruby.network.data_traffic_distribution.n4.n5            0                       (Unspecified)
system.ruby.network.data_traffic_distribution.n4.n6            0                       (Unspecified)
system.ruby.network.data_traffic_distribution.n4.n7            0                       (Unspecified)
system.ruby.network.data_traffic_distribution.n4.n8            0                       (Unspecified)
system.ruby.network.data_traffic_distribution.n4.n9            0                       (Unspecified)
system.ruby.network.data_traffic_distribution.n5.n0         4824                       (Unspecified)
system.ruby.network.data_traffic_distribution.n5.n1            0                       (Unspecified)
system.ruby.network.data_traffic_distribution.n5.n10            0                       (Unspecified)
system.ruby.network.data_traffic_distribution.n5.n11            0                       (Unspecified)
system.ruby.network.data_traffic_distribution.n5.n12            0                       (Unspecified)
system.ruby.network.data_traffic_distribution.n5.n13            0                       (Unspecified)
system.ruby.network.data_traffic_distribution.n5.n14            0                       (Unspecified)
system.ruby.network.data_traffic_distribution.n5.n15            0                       (Unspecified)
system.ruby.network.data_traffic_distribution.n5.n2            0                       (Unspecified)
system.ruby.network.data_traffic_distribution.n5.n3            0                       (Unspecified)
system.ruby.network.data_traffic_distribution.n5.n4            0                       (Unspecified)
system.ruby.network.data_traffic_distribution.n5.n5            0                       (Unspecified)
system.ruby.network.data_traffic_distribution.n5.n6            0                       (Unspecified)
system.ruby.network.data_traffic_distribution.n5.n7            0                       (Unspecified)
system.ruby.network.data_traffic_distribution.n5.n8            0                       (Unspecified)
system.ruby.network.data_traffic_distribution.n5.n9            0                       (Unspecified)
system.ruby.network.data_traffic_distribution.n6.n0         4910                       (Unspecified)
system.ruby.network.data_traffic_distribution.n6.n1            0                       (Unspecified)
system.ruby.network.data_traffic_distribution.n6.n10            0                       (Unspecified)
system.ruby.network.data_traffic_distribution.n6.n11            0                       (Unspecified)
system.ruby.network.data_traffic_distribution.n6.n12            0                       (Unspecified)
system.ruby.network.data_traffic_distribution.n6.n13            0                       (Unspecified)
system.ruby.network.data_traffic_distribution.n6.n14            0                       (Unspecified)
system.ruby.network.data_traffic_distribution.n6.n15            0                       (Unspecified)
system.ruby.network.data_traffic_distribution.n6.n2            0                       (Unspecified)
system.ruby.network.data_traffic_distribution.n6.n3            0                       (Unspecified)
system.ruby.network.data_traffic_distribution.n6.n4            0                       (Unspecified)
system.ruby.network.data_traffic_distribution.n6.n5            0                       (Unspecified)
system.ruby.network.data_traffic_distribution.n6.n6            0                       (Unspecified)
system.ruby.network.data_traffic_distribution.n6.n7            0                       (Unspecified)
system.ruby.network.data_traffic_distribution.n6.n8            0                       (Unspecified)
system.ruby.network.data_traffic_distribution.n6.n9            0                       (Unspecified)
system.ruby.network.data_traffic_distribution.n7.n0         4691                       (Unspecified)
system.ruby.network.data_traffic_distribution.n7.n1            0                       (Unspecified)
system.ruby.network.data_traffic_distribution.n7.n10            0                       (Unspecified)
system.ruby.network.data_traffic_distribution.n7.n11            0                       (Unspecified)
system.ruby.network.data_traffic_distribution.n7.n12            0                       (Unspecified)
system.ruby.network.data_traffic_distribution.n7.n13            0                       (Unspecified)
system.ruby.network.data_traffic_distribution.n7.n14            0                       (Unspecified)
system.ruby.network.data_traffic_distribution.n7.n15            0                       (Unspecified)
system.ruby.network.data_traffic_distribution.n7.n2            0                       (Unspecified)
system.ruby.network.data_traffic_distribution.n7.n3            0                       (Unspecified)
system.ruby.network.data_traffic_distribution.n7.n4            0                       (Unspecified)
system.ruby.network.data_traffic_distribution.n7.n5            0                       (Unspecified)
system.ruby.network.data_traffic_distribution.n7.n6            0                       (Unspecified)
system.ruby.network.data_traffic_distribution.n7.n7            0                       (Unspecified)
system.ruby.network.data_traffic_distribution.n7.n8            0                       (Unspecified)
system.ruby.network.data_traffic_distribution.n7.n9            0                       (Unspecified)
system.ruby.network.data_traffic_distribution.n8.n0         4845                       (Unspecified)
system.ruby.network.data_traffic_distribution.n8.n1            0                       (Unspecified)
system.ruby.network.data_traffic_distribution.n8.n10            0                       (Unspecified)
system.ruby.network.data_traffic_distribution.n8.n11            0                       (Unspecified)
system.ruby.network.data_traffic_distribution.n8.n12            0                       (Unspecified)
system.ruby.network.data_traffic_distribution.n8.n13            0                       (Unspecified)
system.ruby.network.data_traffic_distribution.n8.n14            0                       (Unspecified)
system.ruby.network.data_traffic_distribution.n8.n15            0                       (Unspecified)
system.ruby.network.data_traffic_distribution.n8.n2            0                       (Unspecified)
system.ruby.network.data_traffic_distribution.n8.n3            0                       (Unspecified)
system.ruby.network.data_traffic_distribution.n8.n4            0                       (Unspecified)
system.ruby.network.data_traffic_distribution.n8.n5            0                       (Unspecified)
system.ruby.network.data_traffic_distribution.n8.n6            0                       (Unspecified)
system.ruby.network.data_traffic_distribution.n8.n7            0                       (Unspecified)
system.ruby.network.data_traffic_distribution.n8.n8            0                       (Unspecified)
system.ruby.network.data_traffic_distribution.n8.n9            0                       (Unspecified)
system.ruby.network.data_traffic_distribution.n9.n0         4832                       (Unspecified)
system.ruby.network.data_traffic_distribution.n9.n1            0                       (Unspecified)
system.ruby.network.data_traffic_distribution.n9.n10            0                       (Unspecified)
system.ruby.network.data_traffic_distribution.n9.n11            0                       (Unspecified)
system.ruby.network.data_traffic_distribution.n9.n12            0                       (Unspecified)
system.ruby.network.data_traffic_distribution.n9.n13            0                       (Unspecified)
system.ruby.network.data_traffic_distribution.n9.n14            0                       (Unspecified)
system.ruby.network.data_traffic_distribution.n9.n15            0                       (Unspecified)
system.ruby.network.data_traffic_distribution.n9.n2            0                       (Unspecified)
system.ruby.network.data_traffic_distribution.n9.n3            0                       (Unspecified)
system.ruby.network.data_traffic_distribution.n9.n4            0                       (Unspecified)
system.ruby.network.data_traffic_distribution.n9.n5            0                       (Unspecified)
system.ruby.network.data_traffic_distribution.n9.n6            0                       (Unspecified)
system.ruby.network.data_traffic_distribution.n9.n7            0                       (Unspecified)
system.ruby.network.data_traffic_distribution.n9.n8            0                       (Unspecified)
system.ruby.network.data_traffic_distribution.n9.n9            0                       (Unspecified)
system.ruby.network.ext_in_link_utilization      1221446                       (Unspecified)
system.ruby.network.ext_out_link_utilization      1221445                       (Unspecified)
system.ruby.network.flit_network_latency |  2324061500                       | 12819597500                       |   330564500                       |           0                       |           0                       (Unspecified)
system.ruby.network.flit_queueing_latency |   338500500                       |  1312035000                       |    36394500                       |           0                       |           0                       (Unspecified)
system.ruby.network.flits_injected       |      276870     22.67%     22.67% |      871786     71.37%     94.04% |       72790      5.96%    100.00% |           0      0.00%    100.00% |           0      0.00%    100.00% (Unspecified)
system.ruby.network.flits_injected::total      1221446                       (Unspecified)
system.ruby.network.flits_received       |      276870     22.67%     22.67% |      871786     71.37%     94.04% |       72789      5.96%    100.00% |           0      0.00%    100.00% |           0      0.00%    100.00% (Unspecified)
system.ruby.network.flits_received::total      1221445                       (Unspecified)
system.ruby.network.int_link_utilization      3194479                       (Unspecified)
system.ruby.network.packet_network_latency |  1520614500                       |  3317792500                       |   330564500                       |           0                       |           0                       (Unspecified)
system.ruby.network.packet_queueing_latency |   266430500                       |   342651000                       |    36394500                       |           0                       |           0                       (Unspecified)
system.ruby.network.packets_injected     |      217306     41.19%     41.19% |      237498     45.02%     86.20% |       72790     13.80%    100.00% |           0      0.00%    100.00% |           0      0.00%    100.00% (Unspecified)
system.ruby.network.packets_injected::total       527594                       (Unspecified)
system.ruby.network.packets_received     |      217306     41.19%     41.19% |      237498     45.02%     86.20% |       72789     13.80%    100.00% |           0      0.00%    100.00% |           0      0.00%    100.00% (Unspecified)
system.ruby.network.packets_received::total       527593                       (Unspecified)
system.ruby.network.routers00.buffer_reads      1221445                       (Unspecified)
system.ruby.network.routers00.buffer_writes      1221445                       (Unspecified)
system.ruby.network.routers00.crossbar_activity      1221445                       (Unspecified)
system.ruby.network.routers00.sw_input_arbiter_activity      1399076                       (Unspecified)
system.ruby.network.routers00.sw_output_arbiter_activity      1221445                       (Unspecified)
system.ruby.network.routers01.buffer_reads       495942                       (Unspecified)
system.ruby.network.routers01.buffer_writes       495942                       (Unspecified)
system.ruby.network.routers01.crossbar_activity       495942                       (Unspecified)
system.ruby.network.routers01.sw_input_arbiter_activity       502080                       (Unspecified)
system.ruby.network.routers01.sw_output_arbiter_activity       495942                       (Unspecified)
system.ruby.network.routers02.buffer_reads       365008                       (Unspecified)
system.ruby.network.routers02.buffer_writes       365008                       (Unspecified)
system.ruby.network.routers02.crossbar_activity       365008                       (Unspecified)
system.ruby.network.routers02.sw_input_arbiter_activity       368328                       (Unspecified)
system.ruby.network.routers02.sw_output_arbiter_activity       365008                       (Unspecified)
system.ruby.network.routers03.buffer_reads       132013                       (Unspecified)
system.ruby.network.routers03.buffer_writes       132013                       (Unspecified)
system.ruby.network.routers03.crossbar_activity       132013                       (Unspecified)
system.ruby.network.routers03.sw_input_arbiter_activity       132394                       (Unspecified)
system.ruby.network.routers03.sw_output_arbiter_activity       132013                       (Unspecified)
system.ruby.network.routers04.buffer_reads       513432                       (Unspecified)
system.ruby.network.routers04.buffer_writes       513432                       (Unspecified)
system.ruby.network.routers04.crossbar_activity       513432                       (Unspecified)
system.ruby.network.routers04.sw_input_arbiter_activity       622444                       (Unspecified)
system.ruby.network.routers04.sw_output_arbiter_activity       513432                       (Unspecified)
system.ruby.network.routers05.buffer_reads       227782                       (Unspecified)
system.ruby.network.routers05.buffer_writes       227782                       (Unspecified)
system.ruby.network.routers05.crossbar_activity       227782                       (Unspecified)
system.ruby.network.routers05.sw_input_arbiter_activity       233141                       (Unspecified)
system.ruby.network.routers05.sw_output_arbiter_activity       227782                       (Unspecified)
system.ruby.network.routers06.buffer_reads       297039                       (Unspecified)
system.ruby.network.routers06.buffer_writes       297039                       (Unspecified)
system.ruby.network.routers06.crossbar_activity       297039                       (Unspecified)
system.ruby.network.routers06.sw_input_arbiter_activity       300617                       (Unspecified)
system.ruby.network.routers06.sw_output_arbiter_activity       297039                       (Unspecified)
system.ruby.network.routers07.buffer_reads       109707                       (Unspecified)
system.ruby.network.routers07.buffer_writes       109707                       (Unspecified)
system.ruby.network.routers07.crossbar_activity       109707                       (Unspecified)
system.ruby.network.routers07.sw_input_arbiter_activity       110211                       (Unspecified)
system.ruby.network.routers07.sw_output_arbiter_activity       109707                       (Unspecified)
system.ruby.network.routers08.buffer_reads       303738                       (Unspecified)
system.ruby.network.routers08.buffer_writes       303738                       (Unspecified)
system.ruby.network.routers08.crossbar_activity       303738                       (Unspecified)
system.ruby.network.routers08.sw_input_arbiter_activity       367883                       (Unspecified)
system.ruby.network.routers08.sw_output_arbiter_activity       303738                       (Unspecified)
system.ruby.network.routers09.buffer_reads       149971                       (Unspecified)
system.ruby.network.routers09.buffer_writes       149971                       (Unspecified)
system.ruby.network.routers09.crossbar_activity       149971                       (Unspecified)
system.ruby.network.routers09.sw_input_arbiter_activity       156572                       (Unspecified)
system.ruby.network.routers09.sw_output_arbiter_activity       149971                       (Unspecified)
system.ruby.network.routers10.buffer_reads       117699                       (Unspecified)
system.ruby.network.routers10.buffer_writes       117699                       (Unspecified)
system.ruby.network.routers10.crossbar_activity       117699                       (Unspecified)
system.ruby.network.routers10.sw_input_arbiter_activity       121687                       (Unspecified)
system.ruby.network.routers10.sw_output_arbiter_activity       117699                       (Unspecified)
system.ruby.network.routers11.buffer_reads        84434                       (Unspecified)
system.ruby.network.routers11.buffer_writes        84434                       (Unspecified)
system.ruby.network.routers11.crossbar_activity        84434                       (Unspecified)
system.ruby.network.routers11.sw_input_arbiter_activity        84929                       (Unspecified)
system.ruby.network.routers11.sw_output_arbiter_activity        84434                       (Unspecified)
system.ruby.network.routers12.buffer_reads       145827                       (Unspecified)
system.ruby.network.routers12.buffer_writes       145827                       (Unspecified)
system.ruby.network.routers12.crossbar_activity       145827                       (Unspecified)
system.ruby.network.routers12.sw_input_arbiter_activity       154143                       (Unspecified)
system.ruby.network.routers12.sw_output_arbiter_activity       145827                       (Unspecified)
system.ruby.network.routers13.buffer_reads       114283                       (Unspecified)
system.ruby.network.routers13.buffer_writes       114283                       (Unspecified)
system.ruby.network.routers13.crossbar_activity       114283                       (Unspecified)
system.ruby.network.routers13.sw_input_arbiter_activity       120397                       (Unspecified)
system.ruby.network.routers13.sw_output_arbiter_activity       114283                       (Unspecified)
system.ruby.network.routers14.buffer_reads        83947                       (Unspecified)
system.ruby.network.routers14.buffer_writes        83947                       (Unspecified)
system.ruby.network.routers14.crossbar_activity        83947                       (Unspecified)
system.ruby.network.routers14.sw_input_arbiter_activity        87830                       (Unspecified)
system.ruby.network.routers14.sw_output_arbiter_activity        83947                       (Unspecified)
system.ruby.network.routers15.buffer_reads        53657                       (Unspecified)
system.ruby.network.routers15.buffer_writes        53657                       (Unspecified)
system.ruby.network.routers15.crossbar_activity        53657                       (Unspecified)
system.ruby.network.routers15.sw_input_arbiter_activity        54098                       (Unspecified)
system.ruby.network.routers15.sw_output_arbiter_activity        53657                       (Unspecified)

---------- End Simulation Statistics   ----------
