
---------- Begin Simulation Statistics ----------
simSeconds                                   0.000232                       # Number of seconds simulated (Second)
simTicks                                    232004500                       # Number of ticks simulated (Tick)
finalTick                                   232004500                       # Number of ticks from beginning of simulation (restored from checkpoints and never reset) (Tick)
simFreq                                  1000000000000                       # The number of ticks per simulated second ((Tick/Second))
hostSeconds                                     60.10                       # Real time elapsed on the host (Second)
hostTickRate                                  3860523                       # The number of ticks simulated per host second (ticks/s) ((Tick/Second))
hostMemory                                    1453848                       # Number of bytes of host memory used (Byte)
simInsts                                      1525296                       # Number of instructions simulated (Count)
simOps                                        2791456                       # Number of ops (including micro ops) simulated (Count)
hostInstRate                                    25381                       # Simulator instruction rate (inst/s) ((Count/Second))
hostOpRate                                      46449                       # Simulator op (including micro ops) rate (op/s) ((Count/Second))
system.clk_domain.clock                          1000                       # Clock period in ticks (Tick)
system.cpu0.numCycles                          425194                       # Number of cpu cycles simulated (Cycle)
system.cpu0.cpi                              4.460186                       # CPI: cycles per instruction (core level) ((Cycle/Count))
system.cpu0.ipc                              0.224206                       # IPC: instructions per cycle (core level) ((Count/Cycle))
system.cpu0.numWorkItemsStarted                     0                       # Number of work items this cpu started (Count)
system.cpu0.numWorkItemsCompleted                   0                       # Number of work items this cpu completed (Count)
system.cpu0.instsAdded                         267463                       # Number of instructions added to the IQ (excludes non-spec) (Count)
system.cpu0.nonSpecInstsAdded                      86                       # Number of non-speculative instructions added to the IQ (Count)
system.cpu0.instsIssued                        237352                       # Number of instructions issued (Count)
system.cpu0.squashedInstsIssued                   410                       # Number of squashed instructions issued (Count)
system.cpu0.squashedInstsExamined               93083                       # Number of squashed instructions iterated over during squash; mainly for profiling (Count)
system.cpu0.squashedOperandsExamined           183592                       # Number of squashed operands that are examined and possibly removed from graph (Count)
system.cpu0.squashedNonSpecRemoved                 29                       # Number of squashed non-spec instructions that were removed (Count)
system.cpu0.numIssuedDist::samples             294375                       # Number of insts issued each cycle (Count)
system.cpu0.numIssuedDist::mean              0.806291                       # Number of insts issued each cycle (Count)
system.cpu0.numIssuedDist::stdev             1.791817                       # Number of insts issued each cycle (Count)
system.cpu0.numIssuedDist::underflows               0      0.00%      0.00% # Number of insts issued each cycle (Count)
system.cpu0.numIssuedDist::0                   228545     77.64%     77.64% # Number of insts issued each cycle (Count)
system.cpu0.numIssuedDist::1                    13181      4.48%     82.11% # Number of insts issued each cycle (Count)
system.cpu0.numIssuedDist::2                    10659      3.62%     85.74% # Number of insts issued each cycle (Count)
system.cpu0.numIssuedDist::3                    11086      3.77%     89.50% # Number of insts issued each cycle (Count)
system.cpu0.numIssuedDist::4                     8576      2.91%     92.42% # Number of insts issued each cycle (Count)
system.cpu0.numIssuedDist::5                     8537      2.90%     95.32% # Number of insts issued each cycle (Count)
system.cpu0.numIssuedDist::6                     6734      2.29%     97.60% # Number of insts issued each cycle (Count)
system.cpu0.numIssuedDist::7                     4254      1.45%     99.05% # Number of insts issued each cycle (Count)
system.cpu0.numIssuedDist::8                     2803      0.95%    100.00% # Number of insts issued each cycle (Count)
system.cpu0.numIssuedDist::overflows                0      0.00%    100.00% # Number of insts issued each cycle (Count)
system.cpu0.numIssuedDist::min_value                0                       # Number of insts issued each cycle (Count)
system.cpu0.numIssuedDist::max_value                8                       # Number of insts issued each cycle (Count)
system.cpu0.numIssuedDist::total               294375                       # Number of insts issued each cycle (Count)
system.cpu0.statFuBusy::No_OpClass                  0      0.00%      0.00% # attempts to use FU when none available (Count)
system.cpu0.statFuBusy::IntAlu                   2796     69.05%     69.05% # attempts to use FU when none available (Count)
system.cpu0.statFuBusy::IntMult                     0      0.00%     69.05% # attempts to use FU when none available (Count)
system.cpu0.statFuBusy::IntDiv                      0      0.00%     69.05% # attempts to use FU when none available (Count)
system.cpu0.statFuBusy::FloatAdd                    0      0.00%     69.05% # attempts to use FU when none available (Count)
system.cpu0.statFuBusy::FloatCmp                    0      0.00%     69.05% # attempts to use FU when none available (Count)
system.cpu0.statFuBusy::FloatCvt                    0      0.00%     69.05% # attempts to use FU when none available (Count)
system.cpu0.statFuBusy::FloatMult                   0      0.00%     69.05% # attempts to use FU when none available (Count)
system.cpu0.statFuBusy::FloatMultAcc                0      0.00%     69.05% # attempts to use FU when none available (Count)
system.cpu0.statFuBusy::FloatDiv                    0      0.00%     69.05% # attempts to use FU when none available (Count)
system.cpu0.statFuBusy::FloatMisc                   0      0.00%     69.05% # attempts to use FU when none available (Count)
system.cpu0.statFuBusy::FloatSqrt                   0      0.00%     69.05% # attempts to use FU when none available (Count)
system.cpu0.statFuBusy::SimdAdd                     0      0.00%     69.05% # attempts to use FU when none available (Count)
system.cpu0.statFuBusy::SimdAddAcc                  0      0.00%     69.05% # attempts to use FU when none available (Count)
system.cpu0.statFuBusy::SimdAlu                    15      0.37%     69.42% # attempts to use FU when none available (Count)
system.cpu0.statFuBusy::SimdCmp                     0      0.00%     69.42% # attempts to use FU when none available (Count)
system.cpu0.statFuBusy::SimdCvt                    11      0.27%     69.70% # attempts to use FU when none available (Count)
system.cpu0.statFuBusy::SimdMisc                    0      0.00%     69.70% # attempts to use FU when none available (Count)
system.cpu0.statFuBusy::SimdMult                    0      0.00%     69.70% # attempts to use FU when none available (Count)
system.cpu0.statFuBusy::SimdMultAcc                 0      0.00%     69.70% # attempts to use FU when none available (Count)
system.cpu0.statFuBusy::SimdMatMultAcc              0      0.00%     69.70% # attempts to use FU when none available (Count)
system.cpu0.statFuBusy::SimdShift                  20      0.49%     70.19% # attempts to use FU when none available (Count)
system.cpu0.statFuBusy::SimdShiftAcc                0      0.00%     70.19% # attempts to use FU when none available (Count)
system.cpu0.statFuBusy::SimdDiv                     0      0.00%     70.19% # attempts to use FU when none available (Count)
system.cpu0.statFuBusy::SimdSqrt                    0      0.00%     70.19% # attempts to use FU when none available (Count)
system.cpu0.statFuBusy::SimdFloatAdd                0      0.00%     70.19% # attempts to use FU when none available (Count)
system.cpu0.statFuBusy::SimdFloatAlu                0      0.00%     70.19% # attempts to use FU when none available (Count)
system.cpu0.statFuBusy::SimdFloatCmp                0      0.00%     70.19% # attempts to use FU when none available (Count)
system.cpu0.statFuBusy::SimdFloatCvt                0      0.00%     70.19% # attempts to use FU when none available (Count)
system.cpu0.statFuBusy::SimdFloatDiv                0      0.00%     70.19% # attempts to use FU when none available (Count)
system.cpu0.statFuBusy::SimdFloatMisc               0      0.00%     70.19% # attempts to use FU when none available (Count)
system.cpu0.statFuBusy::SimdFloatMult               0      0.00%     70.19% # attempts to use FU when none available (Count)
system.cpu0.statFuBusy::SimdFloatMultAcc            0      0.00%     70.19% # attempts to use FU when none available (Count)
system.cpu0.statFuBusy::SimdFloatMatMultAcc            0      0.00%     70.19% # attempts to use FU when none available (Count)
system.cpu0.statFuBusy::SimdFloatSqrt               0      0.00%     70.19% # attempts to use FU when none available (Count)
system.cpu0.statFuBusy::SimdReduceAdd               0      0.00%     70.19% # attempts to use FU when none available (Count)
system.cpu0.statFuBusy::SimdReduceAlu               0      0.00%     70.19% # attempts to use FU when none available (Count)
system.cpu0.statFuBusy::SimdReduceCmp               0      0.00%     70.19% # attempts to use FU when none available (Count)
system.cpu0.statFuBusy::SimdFloatReduceAdd            0      0.00%     70.19% # attempts to use FU when none available (Count)
system.cpu0.statFuBusy::SimdFloatReduceCmp            0      0.00%     70.19% # attempts to use FU when none available (Count)
system.cpu0.statFuBusy::SimdAes                     0      0.00%     70.19% # attempts to use FU when none available (Count)
system.cpu0.statFuBusy::SimdAesMix                  0      0.00%     70.19% # attempts to use FU when none available (Count)
system.cpu0.statFuBusy::SimdSha1Hash                0      0.00%     70.19% # attempts to use FU when none available (Count)
system.cpu0.statFuBusy::SimdSha1Hash2               0      0.00%     70.19% # attempts to use FU when none available (Count)
system.cpu0.statFuBusy::SimdSha256Hash              0      0.00%     70.19% # attempts to use FU when none available (Count)
system.cpu0.statFuBusy::SimdSha256Hash2             0      0.00%     70.19% # attempts to use FU when none available (Count)
system.cpu0.statFuBusy::SimdShaSigma2               0      0.00%     70.19% # attempts to use FU when none available (Count)
system.cpu0.statFuBusy::SimdShaSigma3               0      0.00%     70.19% # attempts to use FU when none available (Count)
system.cpu0.statFuBusy::SimdPredAlu                 0      0.00%     70.19% # attempts to use FU when none available (Count)
system.cpu0.statFuBusy::Matrix                      0      0.00%     70.19% # attempts to use FU when none available (Count)
system.cpu0.statFuBusy::MatrixMov                   0      0.00%     70.19% # attempts to use FU when none available (Count)
system.cpu0.statFuBusy::MatrixOP                    0      0.00%     70.19% # attempts to use FU when none available (Count)
system.cpu0.statFuBusy::MemRead                   654     16.15%     86.34% # attempts to use FU when none available (Count)
system.cpu0.statFuBusy::MemWrite                  456     11.26%     97.60% # attempts to use FU when none available (Count)
system.cpu0.statFuBusy::FloatMemRead               38      0.94%     98.54% # attempts to use FU when none available (Count)
system.cpu0.statFuBusy::FloatMemWrite              59      1.46%    100.00% # attempts to use FU when none available (Count)
system.cpu0.statFuBusy::IprAccess                   0      0.00%    100.00% # attempts to use FU when none available (Count)
system.cpu0.statFuBusy::InstPrefetch                0      0.00%    100.00% # attempts to use FU when none available (Count)
system.cpu0.statFuBusy::VectorUnitStrideLoad            0      0.00%    100.00% # attempts to use FU when none available (Count)
system.cpu0.statFuBusy::VectorUnitStrideStore            0      0.00%    100.00% # attempts to use FU when none available (Count)
system.cpu0.statFuBusy::VectorUnitStrideMaskLoad            0      0.00%    100.00% # attempts to use FU when none available (Count)
system.cpu0.statFuBusy::VectorUnitStrideMaskStore            0      0.00%    100.00% # attempts to use FU when none available (Count)
system.cpu0.statFuBusy::VectorStridedLoad            0      0.00%    100.00% # attempts to use FU when none available (Count)
system.cpu0.statFuBusy::VectorStridedStore            0      0.00%    100.00% # attempts to use FU when none available (Count)
system.cpu0.statFuBusy::VectorIndexedLoad            0      0.00%    100.00% # attempts to use FU when none available (Count)
system.cpu0.statFuBusy::VectorIndexedStore            0      0.00%    100.00% # attempts to use FU when none available (Count)
system.cpu0.statFuBusy::VectorUnitStrideFaultOnlyFirstLoad            0      0.00%    100.00% # attempts to use FU when none available (Count)
system.cpu0.statFuBusy::VectorWholeRegisterLoad            0      0.00%    100.00% # attempts to use FU when none available (Count)
system.cpu0.statFuBusy::VectorWholeRegisterStore            0      0.00%    100.00% # attempts to use FU when none available (Count)
system.cpu0.statFuBusy::VectorIntegerArith            0      0.00%    100.00% # attempts to use FU when none available (Count)
system.cpu0.statFuBusy::VectorFloatArith            0      0.00%    100.00% # attempts to use FU when none available (Count)
system.cpu0.statFuBusy::VectorFloatConvert            0      0.00%    100.00% # attempts to use FU when none available (Count)
system.cpu0.statFuBusy::VectorIntegerReduce            0      0.00%    100.00% # attempts to use FU when none available (Count)
system.cpu0.statFuBusy::VectorFloatReduce            0      0.00%    100.00% # attempts to use FU when none available (Count)
system.cpu0.statFuBusy::VectorMisc                  0      0.00%    100.00% # attempts to use FU when none available (Count)
system.cpu0.statFuBusy::VectorIntegerExtension            0      0.00%    100.00% # attempts to use FU when none available (Count)
system.cpu0.statFuBusy::VectorConfig                0      0.00%    100.00% # attempts to use FU when none available (Count)
system.cpu0.statIssuedInstType_0::No_OpClass         2372      1.00%      1.00% # Number of instructions issued per FU type, per thread (Count)
system.cpu0.statIssuedInstType_0::IntAlu       176812     74.49%     75.49% # Number of instructions issued per FU type, per thread (Count)
system.cpu0.statIssuedInstType_0::IntMult           20      0.01%     75.50% # Number of instructions issued per FU type, per thread (Count)
system.cpu0.statIssuedInstType_0::IntDiv         1467      0.62%     76.12% # Number of instructions issued per FU type, per thread (Count)
system.cpu0.statIssuedInstType_0::FloatAdd          590      0.25%     76.37% # Number of instructions issued per FU type, per thread (Count)
system.cpu0.statIssuedInstType_0::FloatCmp            0      0.00%     76.37% # Number of instructions issued per FU type, per thread (Count)
system.cpu0.statIssuedInstType_0::FloatCvt           48      0.02%     76.39% # Number of instructions issued per FU type, per thread (Count)
system.cpu0.statIssuedInstType_0::FloatMult            0      0.00%     76.39% # Number of instructions issued per FU type, per thread (Count)
system.cpu0.statIssuedInstType_0::FloatMultAcc            0      0.00%     76.39% # Number of instructions issued per FU type, per thread (Count)
system.cpu0.statIssuedInstType_0::FloatDiv            0      0.00%     76.39% # Number of instructions issued per FU type, per thread (Count)
system.cpu0.statIssuedInstType_0::FloatMisc            0      0.00%     76.39% # Number of instructions issued per FU type, per thread (Count)
system.cpu0.statIssuedInstType_0::FloatSqrt            0      0.00%     76.39% # Number of instructions issued per FU type, per thread (Count)
system.cpu0.statIssuedInstType_0::SimdAdd          491      0.21%     76.60% # Number of instructions issued per FU type, per thread (Count)
system.cpu0.statIssuedInstType_0::SimdAddAcc            0      0.00%     76.60% # Number of instructions issued per FU type, per thread (Count)
system.cpu0.statIssuedInstType_0::SimdAlu         1423      0.60%     77.19% # Number of instructions issued per FU type, per thread (Count)
system.cpu0.statIssuedInstType_0::SimdCmp            0      0.00%     77.19% # Number of instructions issued per FU type, per thread (Count)
system.cpu0.statIssuedInstType_0::SimdCvt         1286      0.54%     77.74% # Number of instructions issued per FU type, per thread (Count)
system.cpu0.statIssuedInstType_0::SimdMisc         1057      0.45%     78.18% # Number of instructions issued per FU type, per thread (Count)
system.cpu0.statIssuedInstType_0::SimdMult            0      0.00%     78.18% # Number of instructions issued per FU type, per thread (Count)
system.cpu0.statIssuedInstType_0::SimdMultAcc            0      0.00%     78.18% # Number of instructions issued per FU type, per thread (Count)
system.cpu0.statIssuedInstType_0::SimdMatMultAcc            0      0.00%     78.18% # Number of instructions issued per FU type, per thread (Count)
system.cpu0.statIssuedInstType_0::SimdShift          431      0.18%     78.36% # Number of instructions issued per FU type, per thread (Count)
system.cpu0.statIssuedInstType_0::SimdShiftAcc            0      0.00%     78.36% # Number of instructions issued per FU type, per thread (Count)
system.cpu0.statIssuedInstType_0::SimdDiv            0      0.00%     78.36% # Number of instructions issued per FU type, per thread (Count)
system.cpu0.statIssuedInstType_0::SimdSqrt            0      0.00%     78.36% # Number of instructions issued per FU type, per thread (Count)
system.cpu0.statIssuedInstType_0::SimdFloatAdd            0      0.00%     78.36% # Number of instructions issued per FU type, per thread (Count)
system.cpu0.statIssuedInstType_0::SimdFloatAlu            0      0.00%     78.36% # Number of instructions issued per FU type, per thread (Count)
system.cpu0.statIssuedInstType_0::SimdFloatCmp            0      0.00%     78.36% # Number of instructions issued per FU type, per thread (Count)
system.cpu0.statIssuedInstType_0::SimdFloatCvt            0      0.00%     78.36% # Number of instructions issued per FU type, per thread (Count)
system.cpu0.statIssuedInstType_0::SimdFloatDiv            0      0.00%     78.36% # Number of instructions issued per FU type, per thread (Count)
system.cpu0.statIssuedInstType_0::SimdFloatMisc            0      0.00%     78.36% # Number of instructions issued per FU type, per thread (Count)
system.cpu0.statIssuedInstType_0::SimdFloatMult            0      0.00%     78.36% # Number of instructions issued per FU type, per thread (Count)
system.cpu0.statIssuedInstType_0::SimdFloatMultAcc            0      0.00%     78.36% # Number of instructions issued per FU type, per thread (Count)
system.cpu0.statIssuedInstType_0::SimdFloatMatMultAcc            0      0.00%     78.36% # Number of instructions issued per FU type, per thread (Count)
system.cpu0.statIssuedInstType_0::SimdFloatSqrt            0      0.00%     78.36% # Number of instructions issued per FU type, per thread (Count)
system.cpu0.statIssuedInstType_0::SimdReduceAdd            0      0.00%     78.36% # Number of instructions issued per FU type, per thread (Count)
system.cpu0.statIssuedInstType_0::SimdReduceAlu            0      0.00%     78.36% # Number of instructions issued per FU type, per thread (Count)
system.cpu0.statIssuedInstType_0::SimdReduceCmp            0      0.00%     78.36% # Number of instructions issued per FU type, per thread (Count)
system.cpu0.statIssuedInstType_0::SimdFloatReduceAdd            0      0.00%     78.36% # Number of instructions issued per FU type, per thread (Count)
system.cpu0.statIssuedInstType_0::SimdFloatReduceCmp            0      0.00%     78.36% # Number of instructions issued per FU type, per thread (Count)
system.cpu0.statIssuedInstType_0::SimdAes            0      0.00%     78.36% # Number of instructions issued per FU type, per thread (Count)
system.cpu0.statIssuedInstType_0::SimdAesMix            0      0.00%     78.36% # Number of instructions issued per FU type, per thread (Count)
system.cpu0.statIssuedInstType_0::SimdSha1Hash            0      0.00%     78.36% # Number of instructions issued per FU type, per thread (Count)
system.cpu0.statIssuedInstType_0::SimdSha1Hash2            0      0.00%     78.36% # Number of instructions issued per FU type, per thread (Count)
system.cpu0.statIssuedInstType_0::SimdSha256Hash            0      0.00%     78.36% # Number of instructions issued per FU type, per thread (Count)
system.cpu0.statIssuedInstType_0::SimdSha256Hash2            0      0.00%     78.36% # Number of instructions issued per FU type, per thread (Count)
system.cpu0.statIssuedInstType_0::SimdShaSigma2            0      0.00%     78.36% # Number of instructions issued per FU type, per thread (Count)
system.cpu0.statIssuedInstType_0::SimdShaSigma3            0      0.00%     78.36% # Number of instructions issued per FU type, per thread (Count)
system.cpu0.statIssuedInstType_0::SimdPredAlu            0      0.00%     78.36% # Number of instructions issued per FU type, per thread (Count)
system.cpu0.statIssuedInstType_0::Matrix            0      0.00%     78.36% # Number of instructions issued per FU type, per thread (Count)
system.cpu0.statIssuedInstType_0::MatrixMov            0      0.00%     78.36% # Number of instructions issued per FU type, per thread (Count)
system.cpu0.statIssuedInstType_0::MatrixOP            0      0.00%     78.36% # Number of instructions issued per FU type, per thread (Count)
system.cpu0.statIssuedInstType_0::MemRead        33763     14.22%     92.59% # Number of instructions issued per FU type, per thread (Count)
system.cpu0.statIssuedInstType_0::MemWrite        14346      6.04%     98.63% # Number of instructions issued per FU type, per thread (Count)
system.cpu0.statIssuedInstType_0::FloatMemRead         2063      0.87%     99.50% # Number of instructions issued per FU type, per thread (Count)
system.cpu0.statIssuedInstType_0::FloatMemWrite         1183      0.50%    100.00% # Number of instructions issued per FU type, per thread (Count)
system.cpu0.statIssuedInstType_0::IprAccess            0      0.00%    100.00% # Number of instructions issued per FU type, per thread (Count)
system.cpu0.statIssuedInstType_0::InstPrefetch            0      0.00%    100.00% # Number of instructions issued per FU type, per thread (Count)
system.cpu0.statIssuedInstType_0::VectorUnitStrideLoad            0      0.00%    100.00% # Number of instructions issued per FU type, per thread (Count)
system.cpu0.statIssuedInstType_0::VectorUnitStrideStore            0      0.00%    100.00% # Number of instructions issued per FU type, per thread (Count)
system.cpu0.statIssuedInstType_0::VectorUnitStrideMaskLoad            0      0.00%    100.00% # Number of instructions issued per FU type, per thread (Count)
system.cpu0.statIssuedInstType_0::VectorUnitStrideMaskStore            0      0.00%    100.00% # Number of instructions issued per FU type, per thread (Count)
system.cpu0.statIssuedInstType_0::VectorStridedLoad            0      0.00%    100.00% # Number of instructions issued per FU type, per thread (Count)
system.cpu0.statIssuedInstType_0::VectorStridedStore            0      0.00%    100.00% # Number of instructions issued per FU type, per thread (Count)
system.cpu0.statIssuedInstType_0::VectorIndexedLoad            0      0.00%    100.00% # Number of instructions issued per FU type, per thread (Count)
system.cpu0.statIssuedInstType_0::VectorIndexedStore            0      0.00%    100.00% # Number of instructions issued per FU type, per thread (Count)
system.cpu0.statIssuedInstType_0::VectorUnitStrideFaultOnlyFirstLoad            0      0.00%    100.00% # Number of instructions issued per FU type, per thread (Count)
system.cpu0.statIssuedInstType_0::VectorWholeRegisterLoad            0      0.00%    100.00% # Number of instructions issued per FU type, per thread (Count)
system.cpu0.statIssuedInstType_0::VectorWholeRegisterStore            0      0.00%    100.00% # Number of instructions issued per FU type, per thread (Count)
system.cpu0.statIssuedInstType_0::VectorIntegerArith            0      0.00%    100.00% # Number of instructions issued per FU type, per thread (Count)
system.cpu0.statIssuedInstType_0::VectorFloatArith            0      0.00%    100.00% # Number of instructions issued per FU type, per thread (Count)
system.cpu0.statIssuedInstType_0::VectorFloatConvert            0      0.00%    100.00% # Number of instructions issued per FU type, per thread (Count)
system.cpu0.statIssuedInstType_0::VectorIntegerReduce            0      0.00%    100.00% # Number of instructions issued per FU type, per thread (Count)
system.cpu0.statIssuedInstType_0::VectorFloatReduce            0      0.00%    100.00% # Number of instructions issued per FU type, per thread (Count)
system.cpu0.statIssuedInstType_0::VectorMisc            0      0.00%    100.00% # Number of instructions issued per FU type, per thread (Count)
system.cpu0.statIssuedInstType_0::VectorIntegerExtension            0      0.00%    100.00% # Number of instructions issued per FU type, per thread (Count)
system.cpu0.statIssuedInstType_0::VectorConfig            0      0.00%    100.00% # Number of instructions issued per FU type, per thread (Count)
system.cpu0.statIssuedInstType_0::total        237352                       # Number of instructions issued per FU type, per thread (Count)
system.cpu0.issueRate                        0.558220                       # Inst issue rate ((Count/Cycle))
system.cpu0.fuBusy                               4049                       # FU busy when requested (Count)
system.cpu0.fuBusyRate                       0.017059                       # FU busy rate (busy events/executed inst) ((Count/Count))
system.cpu0.intInstQueueReads                  755629                       # Number of integer instruction queue reads (Count)
system.cpu0.intInstQueueWrites                 344155                       # Number of integer instruction queue writes (Count)
system.cpu0.intInstQueueWakeupAccesses         220893                       # Number of integer instruction queue wakeup accesses (Count)
system.cpu0.fpInstQueueReads                    17909                       # Number of floating instruction queue reads (Count)
system.cpu0.fpInstQueueWrites                   16556                       # Number of floating instruction queue writes (Count)
system.cpu0.fpInstQueueWakeupAccesses            8232                       # Number of floating instruction queue wakeup accesses (Count)
system.cpu0.vecInstQueueReads                       0                       # Number of vector instruction queue reads (Count)
system.cpu0.vecInstQueueWrites                      0                       # Number of vector instruction queue writes (Count)
system.cpu0.vecInstQueueWakeupAccesses              0                       # Number of vector instruction queue wakeup accesses (Count)
system.cpu0.intAluAccesses                     230036                       # Number of integer alu accesses (Count)
system.cpu0.fpAluAccesses                        8993                       # Number of floating point alu accesses (Count)
system.cpu0.vecAluAccesses                          0                       # Number of vector alu accesses (Count)
system.cpu0.numSquashedInsts                     3715                       # Number of squashed instructions skipped in execute (Count)
system.cpu0.numSwp                                  0                       # Number of swp insts executed (Count)
system.cpu0.timesIdled                            902                       # Number of times that the entire CPU went into an idle state and unscheduled itself (Count)
system.cpu0.idleCycles                         130819                       # Total number of cycles that the CPU has spent unscheduled due to idling (Cycle)
system.cpu0.MemDepUnit__0.insertedLoads         37085                       # Number of loads inserted to the mem dependence unit. (Count)
system.cpu0.MemDepUnit__0.insertedStores        17271                       # Number of stores inserted to the mem dependence unit. (Count)
system.cpu0.MemDepUnit__0.conflictingLoads          962                       # Number of conflicting loads. (Count)
system.cpu0.MemDepUnit__0.conflictingStores          351                       # Number of conflicting stores. (Count)
system.cpu0.MemDepUnit__1.insertedLoads             0                       # Number of loads inserted to the mem dependence unit. (Count)
system.cpu0.MemDepUnit__1.insertedStores            0                       # Number of stores inserted to the mem dependence unit. (Count)
system.cpu0.MemDepUnit__1.conflictingLoads            0                       # Number of conflicting loads. (Count)
system.cpu0.MemDepUnit__1.conflictingStores            0                       # Number of conflicting stores. (Count)
system.cpu0.MemDepUnit__2.insertedLoads             0                       # Number of loads inserted to the mem dependence unit. (Count)
system.cpu0.MemDepUnit__2.insertedStores            0                       # Number of stores inserted to the mem dependence unit. (Count)
system.cpu0.MemDepUnit__2.conflictingLoads            0                       # Number of conflicting loads. (Count)
system.cpu0.MemDepUnit__2.conflictingStores            0                       # Number of conflicting stores. (Count)
system.cpu0.MemDepUnit__3.insertedLoads             0                       # Number of loads inserted to the mem dependence unit. (Count)
system.cpu0.MemDepUnit__3.insertedStores            0                       # Number of stores inserted to the mem dependence unit. (Count)
system.cpu0.MemDepUnit__3.conflictingLoads            0                       # Number of conflicting loads. (Count)
system.cpu0.MemDepUnit__3.conflictingStores            0                       # Number of conflicting stores. (Count)
system.cpu0.branchPred.lookups_0::NoBranch          344      1.06%      1.06% # Number of BP lookups (Count)
system.cpu0.branchPred.lookups_0::Return         1361      4.20%      5.27% # Number of BP lookups (Count)
system.cpu0.branchPred.lookups_0::CallDirect         1540      4.76%     10.02% # Number of BP lookups (Count)
system.cpu0.branchPred.lookups_0::CallIndirect          297      0.92%     10.94% # Number of BP lookups (Count)
system.cpu0.branchPred.lookups_0::DirectCond        26942     83.23%     94.17% # Number of BP lookups (Count)
system.cpu0.branchPred.lookups_0::DirectUncond         1429      4.41%     98.59% # Number of BP lookups (Count)
system.cpu0.branchPred.lookups_0::IndirectCond            0      0.00%     98.59% # Number of BP lookups (Count)
system.cpu0.branchPred.lookups_0::IndirectUncond          457      1.41%    100.00% # Number of BP lookups (Count)
system.cpu0.branchPred.lookups_0::total         32370                       # Number of BP lookups (Count)
system.cpu0.branchPred.squashes_0::NoBranch          320      2.25%      2.25% # Number of branches that got squashed (completely removed) as an earlier branch was mispredicted. (Count)
system.cpu0.branchPred.squashes_0::Return          607      4.27%      6.52% # Number of branches that got squashed (completely removed) as an earlier branch was mispredicted. (Count)
system.cpu0.branchPred.squashes_0::CallDirect          867      6.10%     12.61% # Number of branches that got squashed (completely removed) as an earlier branch was mispredicted. (Count)
system.cpu0.branchPred.squashes_0::CallIndirect          211      1.48%     14.10% # Number of branches that got squashed (completely removed) as an earlier branch was mispredicted. (Count)
system.cpu0.branchPred.squashes_0::DirectCond        11227     78.94%     93.04% # Number of branches that got squashed (completely removed) as an earlier branch was mispredicted. (Count)
system.cpu0.branchPred.squashes_0::DirectUncond          734      5.16%     98.20% # Number of branches that got squashed (completely removed) as an earlier branch was mispredicted. (Count)
system.cpu0.branchPred.squashes_0::IndirectCond            0      0.00%     98.20% # Number of branches that got squashed (completely removed) as an earlier branch was mispredicted. (Count)
system.cpu0.branchPred.squashes_0::IndirectUncond          256      1.80%    100.00% # Number of branches that got squashed (completely removed) as an earlier branch was mispredicted. (Count)
system.cpu0.branchPred.squashes_0::total        14222                       # Number of branches that got squashed (completely removed) as an earlier branch was mispredicted. (Count)
system.cpu0.branchPred.corrected_0::NoBranch           65      2.65%      2.65% # Number of branches that got corrected but not yet commited. Branches get corrected by decode or after execute. Also a branch misprediction can be detected out-of-order. Therefore, a corrected branch might not end up beeing committed in case an even earlier branch was mispredicted (Count)
system.cpu0.branchPred.corrected_0::Return            1      0.04%      2.69% # Number of branches that got corrected but not yet commited. Branches get corrected by decode or after execute. Also a branch misprediction can be detected out-of-order. Therefore, a corrected branch might not end up beeing committed in case an even earlier branch was mispredicted (Count)
system.cpu0.branchPred.corrected_0::CallDirect          260     10.59%     13.27% # Number of branches that got corrected but not yet commited. Branches get corrected by decode or after execute. Also a branch misprediction can be detected out-of-order. Therefore, a corrected branch might not end up beeing committed in case an even earlier branch was mispredicted (Count)
system.cpu0.branchPred.corrected_0::CallIndirect           92      3.75%     17.02% # Number of branches that got corrected but not yet commited. Branches get corrected by decode or after execute. Also a branch misprediction can be detected out-of-order. Therefore, a corrected branch might not end up beeing committed in case an even earlier branch was mispredicted (Count)
system.cpu0.branchPred.corrected_0::DirectCond         1644     66.94%     83.96% # Number of branches that got corrected but not yet commited. Branches get corrected by decode or after execute. Also a branch misprediction can be detected out-of-order. Therefore, a corrected branch might not end up beeing committed in case an even earlier branch was mispredicted (Count)
system.cpu0.branchPred.corrected_0::DirectUncond          250     10.18%     94.14% # Number of branches that got corrected but not yet commited. Branches get corrected by decode or after execute. Also a branch misprediction can be detected out-of-order. Therefore, a corrected branch might not end up beeing committed in case an even earlier branch was mispredicted (Count)
system.cpu0.branchPred.corrected_0::IndirectCond            0      0.00%     94.14% # Number of branches that got corrected but not yet commited. Branches get corrected by decode or after execute. Also a branch misprediction can be detected out-of-order. Therefore, a corrected branch might not end up beeing committed in case an even earlier branch was mispredicted (Count)
system.cpu0.branchPred.corrected_0::IndirectUncond          144      5.86%    100.00% # Number of branches that got corrected but not yet commited. Branches get corrected by decode or after execute. Also a branch misprediction can be detected out-of-order. Therefore, a corrected branch might not end up beeing committed in case an even earlier branch was mispredicted (Count)
system.cpu0.branchPred.corrected_0::total         2456                       # Number of branches that got corrected but not yet commited. Branches get corrected by decode or after execute. Also a branch misprediction can be detected out-of-order. Therefore, a corrected branch might not end up beeing committed in case an even earlier branch was mispredicted (Count)
system.cpu0.branchPred.earlyResteers_0::NoBranch            0                       # Number of branches that got redirected after decode. (Count)
system.cpu0.branchPred.earlyResteers_0::Return            0                       # Number of branches that got redirected after decode. (Count)
system.cpu0.branchPred.earlyResteers_0::CallDirect            0                       # Number of branches that got redirected after decode. (Count)
system.cpu0.branchPred.earlyResteers_0::CallIndirect            0                       # Number of branches that got redirected after decode. (Count)
system.cpu0.branchPred.earlyResteers_0::DirectCond            0                       # Number of branches that got redirected after decode. (Count)
system.cpu0.branchPred.earlyResteers_0::DirectUncond            0                       # Number of branches that got redirected after decode. (Count)
system.cpu0.branchPred.earlyResteers_0::IndirectCond            0                       # Number of branches that got redirected after decode. (Count)
system.cpu0.branchPred.earlyResteers_0::IndirectUncond            0                       # Number of branches that got redirected after decode. (Count)
system.cpu0.branchPred.earlyResteers_0::total            0                       # Number of branches that got redirected after decode. (Count)
system.cpu0.branchPred.committed_0::NoBranch           24      0.13%      0.13% # Number of branches finally committed  (Count)
system.cpu0.branchPred.committed_0::Return          754      4.15%      4.29% # Number of branches finally committed  (Count)
system.cpu0.branchPred.committed_0::CallDirect          673      3.71%      8.00% # Number of branches finally committed  (Count)
system.cpu0.branchPred.committed_0::CallIndirect           86      0.47%      8.47% # Number of branches finally committed  (Count)
system.cpu0.branchPred.committed_0::DirectCond        15715     86.59%     95.06% # Number of branches finally committed  (Count)
system.cpu0.branchPred.committed_0::DirectUncond          695      3.83%     98.89% # Number of branches finally committed  (Count)
system.cpu0.branchPred.committed_0::IndirectCond            0      0.00%     98.89% # Number of branches finally committed  (Count)
system.cpu0.branchPred.committed_0::IndirectUncond          201      1.11%    100.00% # Number of branches finally committed  (Count)
system.cpu0.branchPred.committed_0::total        18148                       # Number of branches finally committed  (Count)
system.cpu0.branchPred.mispredicted_0::NoBranch           24      1.20%      1.20% # Number of committed branches that were mispredicted. (Count)
system.cpu0.branchPred.mispredicted_0::Return            0      0.00%      1.20% # Number of committed branches that were mispredicted. (Count)
system.cpu0.branchPred.mispredicted_0::CallDirect          139      6.97%      8.17% # Number of committed branches that were mispredicted. (Count)
system.cpu0.branchPred.mispredicted_0::CallIndirect           84      4.21%     12.39% # Number of committed branches that were mispredicted. (Count)
system.cpu0.branchPred.mispredicted_0::DirectCond         1483     74.37%     86.76% # Number of committed branches that were mispredicted. (Count)
system.cpu0.branchPred.mispredicted_0::DirectUncond          134      6.72%     93.48% # Number of committed branches that were mispredicted. (Count)
system.cpu0.branchPred.mispredicted_0::IndirectCond            0      0.00%     93.48% # Number of committed branches that were mispredicted. (Count)
system.cpu0.branchPred.mispredicted_0::IndirectUncond          130      6.52%    100.00% # Number of committed branches that were mispredicted. (Count)
system.cpu0.branchPred.mispredicted_0::total         1994                       # Number of committed branches that were mispredicted. (Count)
system.cpu0.branchPred.targetProvider_0::NoTarget        19260     59.50%     59.50% # The component providing the target for taken branches (Count)
system.cpu0.branchPred.targetProvider_0::BTB        11636     35.95%     95.45% # The component providing the target for taken branches (Count)
system.cpu0.branchPred.targetProvider_0::RAS         1361      4.20%     99.65% # The component providing the target for taken branches (Count)
system.cpu0.branchPred.targetProvider_0::Indirect          113      0.35%    100.00% # The component providing the target for taken branches (Count)
system.cpu0.branchPred.targetProvider_0::total        32370                       # The component providing the target for taken branches (Count)
system.cpu0.branchPred.targetWrong_0::NoBranch         1903     84.09%     84.09% # Number of branches where the target was incorrect or not available at prediction time. (Count)
system.cpu0.branchPred.targetWrong_0::Return          350     15.47%     99.56% # Number of branches where the target was incorrect or not available at prediction time. (Count)
system.cpu0.branchPred.targetWrong_0::CallDirect            1      0.04%     99.60% # Number of branches where the target was incorrect or not available at prediction time. (Count)
system.cpu0.branchPred.targetWrong_0::CallIndirect            9      0.40%    100.00% # Number of branches where the target was incorrect or not available at prediction time. (Count)
system.cpu0.branchPred.targetWrong_0::DirectCond            0      0.00%    100.00% # Number of branches where the target was incorrect or not available at prediction time. (Count)
system.cpu0.branchPred.targetWrong_0::DirectUncond            0      0.00%    100.00% # Number of branches where the target was incorrect or not available at prediction time. (Count)
system.cpu0.branchPred.targetWrong_0::IndirectCond            0      0.00%    100.00% # Number of branches where the target was incorrect or not available at prediction time. (Count)
system.cpu0.branchPred.targetWrong_0::IndirectUncond            0      0.00%    100.00% # Number of branches where the target was incorrect or not available at prediction time. (Count)
system.cpu0.branchPred.targetWrong_0::total         2263                       # Number of branches where the target was incorrect or not available at prediction time. (Count)
system.cpu0.branchPred.condPredicted            27286                       # Number of conditional branches predicted (Count)
system.cpu0.branchPred.condPredictedTaken        10437                       # Number of conditional branches predicted as taken (Count)
system.cpu0.branchPred.condIncorrect             2456                       # Number of conditional branches incorrect (Count)
system.cpu0.branchPred.predTakenBTBMiss           658                       # Number of branches predicted taken but missed in BTB (Count)
system.cpu0.branchPred.NotTakenMispredicted         2079                       # Number branches predicted 'not taken' but turned out to be taken (Count)
system.cpu0.branchPred.TakenMispredicted          377                       # Number branches predicted taken but are actually not taken (Count)
system.cpu0.branchPred.BTBLookups               32370                       # Number of BTB lookups (Count)
system.cpu0.branchPred.BTBUpdates                1777                       # Number of BTB updates (Count)
system.cpu0.branchPred.BTBHits                  15789                       # Number of BTB hits (Count)
system.cpu0.branchPred.BTBHitRatio           0.487766                       # BTB Hit Ratio (Ratio)
system.cpu0.branchPred.BTBMispredicted           1124                       # Number BTB mispredictions. No target found or target wrong (Count)
system.cpu0.branchPred.indirectLookups            754                       # Number of indirect predictor lookups. (Count)
system.cpu0.branchPred.indirectHits               113                       # Number of indirect target hits. (Count)
system.cpu0.branchPred.indirectMisses             641                       # Number of indirect misses. (Count)
system.cpu0.branchPred.indirectMispredicted            0                       # Number of mispredicted indirect branches. (Count)
system.cpu0.branchPred.btb.lookups::NoBranch          344      1.06%      1.06% # Number of BTB lookups (Count)
system.cpu0.branchPred.btb.lookups::Return         1361      4.20%      5.27% # Number of BTB lookups (Count)
system.cpu0.branchPred.btb.lookups::CallDirect         1540      4.76%     10.02% # Number of BTB lookups (Count)
system.cpu0.branchPred.btb.lookups::CallIndirect          297      0.92%     10.94% # Number of BTB lookups (Count)
system.cpu0.branchPred.btb.lookups::DirectCond        26942     83.23%     94.17% # Number of BTB lookups (Count)
system.cpu0.branchPred.btb.lookups::DirectUncond         1429      4.41%     98.59% # Number of BTB lookups (Count)
system.cpu0.branchPred.btb.lookups::IndirectCond            0      0.00%     98.59% # Number of BTB lookups (Count)
system.cpu0.branchPred.btb.lookups::IndirectUncond          457      1.41%    100.00% # Number of BTB lookups (Count)
system.cpu0.branchPred.btb.lookups::total        32370                       # Number of BTB lookups (Count)
system.cpu0.branchPred.btb.misses::NoBranch          117      0.71%      0.71% # Number of BTB misses (Count)
system.cpu0.branchPred.btb.misses::Return         1361      8.21%      8.91% # Number of BTB misses (Count)
system.cpu0.branchPred.btb.misses::CallDirect          402      2.42%     11.34% # Number of BTB misses (Count)
system.cpu0.branchPred.btb.misses::CallIndirect          297      1.79%     13.13% # Number of BTB misses (Count)
system.cpu0.branchPred.btb.misses::DirectCond        13601     82.03%     95.16% # Number of BTB misses (Count)
system.cpu0.branchPred.btb.misses::DirectUncond          346      2.09%     97.24% # Number of BTB misses (Count)
system.cpu0.branchPred.btb.misses::IndirectCond            0      0.00%     97.24% # Number of BTB misses (Count)
system.cpu0.branchPred.btb.misses::IndirectUncond          457      2.76%    100.00% # Number of BTB misses (Count)
system.cpu0.branchPred.btb.misses::total        16581                       # Number of BTB misses (Count)
system.cpu0.branchPred.btb.updates::NoBranch            0      0.00%      0.00% # Number of BTB updates (Count)
system.cpu0.branchPred.btb.updates::Return            0      0.00%      0.00% # Number of BTB updates (Count)
system.cpu0.branchPred.btb.updates::CallDirect          260     14.63%     14.63% # Number of BTB updates (Count)
system.cpu0.branchPred.btb.updates::CallIndirect            0      0.00%     14.63% # Number of BTB updates (Count)
system.cpu0.branchPred.btb.updates::DirectCond         1267     71.30%     85.93% # Number of BTB updates (Count)
system.cpu0.branchPred.btb.updates::DirectUncond          250     14.07%    100.00% # Number of BTB updates (Count)
system.cpu0.branchPred.btb.updates::IndirectCond            0      0.00%    100.00% # Number of BTB updates (Count)
system.cpu0.branchPred.btb.updates::IndirectUncond            0      0.00%    100.00% # Number of BTB updates (Count)
system.cpu0.branchPred.btb.updates::total         1777                       # Number of BTB updates (Count)
system.cpu0.branchPred.btb.mispredict::NoBranch            0      0.00%      0.00% # Number of BTB mispredictions. No target found or target wrong. (Count)
system.cpu0.branchPred.btb.mispredict::Return            0      0.00%      0.00% # Number of BTB mispredictions. No target found or target wrong. (Count)
system.cpu0.branchPred.btb.mispredict::CallDirect          260     14.63%     14.63% # Number of BTB mispredictions. No target found or target wrong. (Count)
system.cpu0.branchPred.btb.mispredict::CallIndirect            0      0.00%     14.63% # Number of BTB mispredictions. No target found or target wrong. (Count)
system.cpu0.branchPred.btb.mispredict::DirectCond         1267     71.30%     85.93% # Number of BTB mispredictions. No target found or target wrong. (Count)
system.cpu0.branchPred.btb.mispredict::DirectUncond          250     14.07%    100.00% # Number of BTB mispredictions. No target found or target wrong. (Count)
system.cpu0.branchPred.btb.mispredict::IndirectCond            0      0.00%    100.00% # Number of BTB mispredictions. No target found or target wrong. (Count)
system.cpu0.branchPred.btb.mispredict::IndirectUncond            0      0.00%    100.00% # Number of BTB mispredictions. No target found or target wrong. (Count)
system.cpu0.branchPred.btb.mispredict::total         1777                       # Number of BTB mispredictions. No target found or target wrong. (Count)
system.cpu0.branchPred.btb.power_state.pwrStateResidencyTicks::UNDEFINED    232004500                       # Cumulative time (in ticks) in various power states (Tick)
system.cpu0.branchPred.indirectBranchPred.lookups          754                       # Number of lookups (Count)
system.cpu0.branchPred.indirectBranchPred.hits          113                       # Number of hits of a tag (Count)
system.cpu0.branchPred.indirectBranchPred.misses          641                       # Number of misses (Count)
system.cpu0.branchPred.indirectBranchPred.targetRecords          236                       # Number of targets that where recorded/installed in the cache (Count)
system.cpu0.branchPred.indirectBranchPred.indirectRecords          990                       # Number of indirect branches/calls recorded in the indirect hist (Count)
system.cpu0.branchPred.indirectBranchPred.speculativeOverflows            1                       # Number of times more than the allowed capacity for speculative branches/calls where in flight and destroy the path history (Count)
system.cpu0.branchPred.ras.pushes                2444                       # Number of times a PC was pushed onto the RAS (Count)
system.cpu0.branchPred.ras.pops                  2439                       # Number of times a PC was poped from the RAS (Count)
system.cpu0.branchPred.ras.squashes              1685                       # Number of times the stack operation was squashed due to wrong speculation. (Count)
system.cpu0.branchPred.ras.used                   754                       # Number of times the RAS is the provider (Count)
system.cpu0.branchPred.ras.correct                754                       # Number of times the RAS is the provider and the prediction is correct (Count)
system.cpu0.branchPred.ras.incorrect                0                       # Number of times the RAS is the provider and the prediction is wrong (Count)
system.cpu0.commit.commitSquashedInsts          91615                       # The number of squashed insts skipped by commit (Count)
system.cpu0.commit.commitNonSpecStalls             57                       # The number of times commit has been forced to stall to communicate backwards (Count)
system.cpu0.commit.branchMispredicts             2189                       # The number of times a branch was mispredicted (Count)
system.cpu0.commit.numCommittedDist::samples       281179                       # Number of insts commited each cycle (Count)
system.cpu0.commit.numCommittedDist::mean     0.620480                       # Number of insts commited each cycle (Count)
system.cpu0.commit.numCommittedDist::stdev     1.797046                       # Number of insts commited each cycle (Count)
system.cpu0.commit.numCommittedDist::underflows            0      0.00%      0.00% # Number of insts commited each cycle (Count)
system.cpu0.commit.numCommittedDist::0         237601     84.50%     84.50% # Number of insts commited each cycle (Count)
system.cpu0.commit.numCommittedDist::1          10010      3.56%     88.06% # Number of insts commited each cycle (Count)
system.cpu0.commit.numCommittedDist::2           6959      2.47%     90.54% # Number of insts commited each cycle (Count)
system.cpu0.commit.numCommittedDist::3           7792      2.77%     93.31% # Number of insts commited each cycle (Count)
system.cpu0.commit.numCommittedDist::4           2896      1.03%     94.34% # Number of insts commited each cycle (Count)
system.cpu0.commit.numCommittedDist::5           2990      1.06%     95.40% # Number of insts commited each cycle (Count)
system.cpu0.commit.numCommittedDist::6            969      0.34%     95.75% # Number of insts commited each cycle (Count)
system.cpu0.commit.numCommittedDist::7            882      0.31%     96.06% # Number of insts commited each cycle (Count)
system.cpu0.commit.numCommittedDist::8          11080      3.94%    100.00% # Number of insts commited each cycle (Count)
system.cpu0.commit.numCommittedDist::overflows            0      0.00%    100.00% # Number of insts commited each cycle (Count)
system.cpu0.commit.numCommittedDist::min_value            0                       # Number of insts commited each cycle (Count)
system.cpu0.commit.numCommittedDist::max_value            8                       # Number of insts commited each cycle (Count)
system.cpu0.commit.numCommittedDist::total       281179                       # Number of insts commited each cycle (Count)
system.cpu0.commit.amos                             0                       # Number of atomic instructions committed (Count)
system.cpu0.commit.membars                         20                       # Number of memory barriers committed (Count)
system.cpu0.commit.functionCalls                  759                       # Number of function calls committed. (Count)
system.cpu0.commit.committedInstType_0::No_OpClass         1022      0.59%      0.59% # Class of committed instruction (Count)
system.cpu0.commit.committedInstType_0::IntAlu       132704     76.06%     76.65% # Class of committed instruction (Count)
system.cpu0.commit.committedInstType_0::IntMult           15      0.01%     76.66% # Class of committed instruction (Count)
system.cpu0.commit.committedInstType_0::IntDiv         1351      0.77%     77.43% # Class of committed instruction (Count)
system.cpu0.commit.committedInstType_0::FloatAdd          295      0.17%     77.60% # Class of committed instruction (Count)
system.cpu0.commit.committedInstType_0::FloatCmp            0      0.00%     77.60% # Class of committed instruction (Count)
system.cpu0.commit.committedInstType_0::FloatCvt           48      0.03%     77.63% # Class of committed instruction (Count)
system.cpu0.commit.committedInstType_0::FloatMult            0      0.00%     77.63% # Class of committed instruction (Count)
system.cpu0.commit.committedInstType_0::FloatMultAcc            0      0.00%     77.63% # Class of committed instruction (Count)
system.cpu0.commit.committedInstType_0::FloatDiv            0      0.00%     77.63% # Class of committed instruction (Count)
system.cpu0.commit.committedInstType_0::FloatMisc            0      0.00%     77.63% # Class of committed instruction (Count)
system.cpu0.commit.committedInstType_0::FloatSqrt            0      0.00%     77.63% # Class of committed instruction (Count)
system.cpu0.commit.committedInstType_0::SimdAdd          350      0.20%     77.83% # Class of committed instruction (Count)
system.cpu0.commit.committedInstType_0::SimdAddAcc            0      0.00%     77.83% # Class of committed instruction (Count)
system.cpu0.commit.committedInstType_0::SimdAlu          782      0.45%     78.28% # Class of committed instruction (Count)
system.cpu0.commit.committedInstType_0::SimdCmp            0      0.00%     78.28% # Class of committed instruction (Count)
system.cpu0.commit.committedInstType_0::SimdCvt          810      0.46%     78.74% # Class of committed instruction (Count)
system.cpu0.commit.committedInstType_0::SimdMisc          803      0.46%     79.20% # Class of committed instruction (Count)
system.cpu0.commit.committedInstType_0::SimdMult            0      0.00%     79.20% # Class of committed instruction (Count)
system.cpu0.commit.committedInstType_0::SimdMultAcc            0      0.00%     79.20% # Class of committed instruction (Count)
system.cpu0.commit.committedInstType_0::SimdMatMultAcc            0      0.00%     79.20% # Class of committed instruction (Count)
system.cpu0.commit.committedInstType_0::SimdShift          174      0.10%     79.30% # Class of committed instruction (Count)
system.cpu0.commit.committedInstType_0::SimdShiftAcc            0      0.00%     79.30% # Class of committed instruction (Count)
system.cpu0.commit.committedInstType_0::SimdDiv            0      0.00%     79.30% # Class of committed instruction (Count)
system.cpu0.commit.committedInstType_0::SimdSqrt            0      0.00%     79.30% # Class of committed instruction (Count)
system.cpu0.commit.committedInstType_0::SimdFloatAdd            0      0.00%     79.30% # Class of committed instruction (Count)
system.cpu0.commit.committedInstType_0::SimdFloatAlu            0      0.00%     79.30% # Class of committed instruction (Count)
system.cpu0.commit.committedInstType_0::SimdFloatCmp            0      0.00%     79.30% # Class of committed instruction (Count)
system.cpu0.commit.committedInstType_0::SimdFloatCvt            0      0.00%     79.30% # Class of committed instruction (Count)
system.cpu0.commit.committedInstType_0::SimdFloatDiv            0      0.00%     79.30% # Class of committed instruction (Count)
system.cpu0.commit.committedInstType_0::SimdFloatMisc            0      0.00%     79.30% # Class of committed instruction (Count)
system.cpu0.commit.committedInstType_0::SimdFloatMult            0      0.00%     79.30% # Class of committed instruction (Count)
system.cpu0.commit.committedInstType_0::SimdFloatMultAcc            0      0.00%     79.30% # Class of committed instruction (Count)
system.cpu0.commit.committedInstType_0::SimdFloatMatMultAcc            0      0.00%     79.30% # Class of committed instruction (Count)
system.cpu0.commit.committedInstType_0::SimdFloatSqrt            0      0.00%     79.30% # Class of committed instruction (Count)
system.cpu0.commit.committedInstType_0::SimdReduceAdd            0      0.00%     79.30% # Class of committed instruction (Count)
system.cpu0.commit.committedInstType_0::SimdReduceAlu            0      0.00%     79.30% # Class of committed instruction (Count)
system.cpu0.commit.committedInstType_0::SimdReduceCmp            0      0.00%     79.30% # Class of committed instruction (Count)
system.cpu0.commit.committedInstType_0::SimdFloatReduceAdd            0      0.00%     79.30% # Class of committed instruction (Count)
system.cpu0.commit.committedInstType_0::SimdFloatReduceCmp            0      0.00%     79.30% # Class of committed instruction (Count)
system.cpu0.commit.committedInstType_0::SimdAes            0      0.00%     79.30% # Class of committed instruction (Count)
system.cpu0.commit.committedInstType_0::SimdAesMix            0      0.00%     79.30% # Class of committed instruction (Count)
system.cpu0.commit.committedInstType_0::SimdSha1Hash            0      0.00%     79.30% # Class of committed instruction (Count)
system.cpu0.commit.committedInstType_0::SimdSha1Hash2            0      0.00%     79.30% # Class of committed instruction (Count)
system.cpu0.commit.committedInstType_0::SimdSha256Hash            0      0.00%     79.30% # Class of committed instruction (Count)
system.cpu0.commit.committedInstType_0::SimdSha256Hash2            0      0.00%     79.30% # Class of committed instruction (Count)
system.cpu0.commit.committedInstType_0::SimdShaSigma2            0      0.00%     79.30% # Class of committed instruction (Count)
system.cpu0.commit.committedInstType_0::SimdShaSigma3            0      0.00%     79.30% # Class of committed instruction (Count)
system.cpu0.commit.committedInstType_0::SimdPredAlu            0      0.00%     79.30% # Class of committed instruction (Count)
system.cpu0.commit.committedInstType_0::Matrix            0      0.00%     79.30% # Class of committed instruction (Count)
system.cpu0.commit.committedInstType_0::MatrixMov            0      0.00%     79.30% # Class of committed instruction (Count)
system.cpu0.commit.committedInstType_0::MatrixOP            0      0.00%     79.30% # Class of committed instruction (Count)
system.cpu0.commit.committedInstType_0::MemRead        23387     13.40%     92.71% # Class of committed instruction (Count)
system.cpu0.commit.committedInstType_0::MemWrite        10777      6.18%     98.88% # Class of committed instruction (Count)
system.cpu0.commit.committedInstType_0::FloatMemRead         1025      0.59%     99.47% # Class of committed instruction (Count)
system.cpu0.commit.committedInstType_0::FloatMemWrite          923      0.53%    100.00% # Class of committed instruction (Count)
system.cpu0.commit.committedInstType_0::IprAccess            0      0.00%    100.00% # Class of committed instruction (Count)
system.cpu0.commit.committedInstType_0::InstPrefetch            0      0.00%    100.00% # Class of committed instruction (Count)
system.cpu0.commit.committedInstType_0::VectorUnitStrideLoad            0      0.00%    100.00% # Class of committed instruction (Count)
system.cpu0.commit.committedInstType_0::VectorUnitStrideStore            0      0.00%    100.00% # Class of committed instruction (Count)
system.cpu0.commit.committedInstType_0::VectorUnitStrideMaskLoad            0      0.00%    100.00% # Class of committed instruction (Count)
system.cpu0.commit.committedInstType_0::VectorUnitStrideMaskStore            0      0.00%    100.00% # Class of committed instruction (Count)
system.cpu0.commit.committedInstType_0::VectorStridedLoad            0      0.00%    100.00% # Class of committed instruction (Count)
system.cpu0.commit.committedInstType_0::VectorStridedStore            0      0.00%    100.00% # Class of committed instruction (Count)
system.cpu0.commit.committedInstType_0::VectorIndexedLoad            0      0.00%    100.00% # Class of committed instruction (Count)
system.cpu0.commit.committedInstType_0::VectorIndexedStore            0      0.00%    100.00% # Class of committed instruction (Count)
system.cpu0.commit.committedInstType_0::VectorUnitStrideFaultOnlyFirstLoad            0      0.00%    100.00% # Class of committed instruction (Count)
system.cpu0.commit.committedInstType_0::VectorWholeRegisterLoad            0      0.00%    100.00% # Class of committed instruction (Count)
system.cpu0.commit.committedInstType_0::VectorWholeRegisterStore            0      0.00%    100.00% # Class of committed instruction (Count)
system.cpu0.commit.committedInstType_0::VectorIntegerArith            0      0.00%    100.00% # Class of committed instruction (Count)
system.cpu0.commit.committedInstType_0::VectorFloatArith            0      0.00%    100.00% # Class of committed instruction (Count)
system.cpu0.commit.committedInstType_0::VectorFloatConvert            0      0.00%    100.00% # Class of committed instruction (Count)
system.cpu0.commit.committedInstType_0::VectorIntegerReduce            0      0.00%    100.00% # Class of committed instruction (Count)
system.cpu0.commit.committedInstType_0::VectorFloatReduce            0      0.00%    100.00% # Class of committed instruction (Count)
system.cpu0.commit.committedInstType_0::VectorMisc            0      0.00%    100.00% # Class of committed instruction (Count)
system.cpu0.commit.committedInstType_0::VectorIntegerExtension            0      0.00%    100.00% # Class of committed instruction (Count)
system.cpu0.commit.committedInstType_0::VectorConfig            0      0.00%    100.00% # Class of committed instruction (Count)
system.cpu0.commit.committedInstType_0::total       174466                       # Class of committed instruction (Count)
system.cpu0.commit.commitEligibleSamples        11080                       # number cycles where commit BW limit reached (Cycle)
system.cpu0.commitStats0.numInsts               95331                       # Number of instructions committed (thread level) (Count)
system.cpu0.commitStats0.numOps                174466                       # Number of ops (including micro ops) committed (thread level) (Count)
system.cpu0.commitStats0.numInstsNotNOP         95331                       # Number of instructions committed excluding NOPs or prefetches (Count)
system.cpu0.commitStats0.numOpsNotNOP          174466                       # Number of Ops (including micro ops) Simulated (Count)
system.cpu0.commitStats0.cpi                 4.460186                       # CPI: cycles per instruction (thread level) ((Cycle/Count))
system.cpu0.commitStats0.ipc                 0.224206                       # IPC: instructions per cycle (thread level) ((Count/Cycle))
system.cpu0.commitStats0.numMemRefs             36112                       # Number of memory references committed (Count)
system.cpu0.commitStats0.numFpInsts              5410                       # Number of float instructions (Count)
system.cpu0.commitStats0.numIntInsts           169812                       # Number of integer instructions (Count)
system.cpu0.commitStats0.numLoadInsts           24412                       # Number of load instructions (Count)
system.cpu0.commitStats0.numStoreInsts          11700                       # Number of store instructions (Count)
system.cpu0.commitStats0.numVecInsts                0                       # Number of vector instructions (Count)
system.cpu0.commitStats0.committedInstType::No_OpClass         1022      0.59%      0.59% # Class of committed instruction. (Count)
system.cpu0.commitStats0.committedInstType::IntAlu       132704     76.06%     76.65% # Class of committed instruction. (Count)
system.cpu0.commitStats0.committedInstType::IntMult           15      0.01%     76.66% # Class of committed instruction. (Count)
system.cpu0.commitStats0.committedInstType::IntDiv         1351      0.77%     77.43% # Class of committed instruction. (Count)
system.cpu0.commitStats0.committedInstType::FloatAdd          295      0.17%     77.60% # Class of committed instruction. (Count)
system.cpu0.commitStats0.committedInstType::FloatCmp            0      0.00%     77.60% # Class of committed instruction. (Count)
system.cpu0.commitStats0.committedInstType::FloatCvt           48      0.03%     77.63% # Class of committed instruction. (Count)
system.cpu0.commitStats0.committedInstType::FloatMult            0      0.00%     77.63% # Class of committed instruction. (Count)
system.cpu0.commitStats0.committedInstType::FloatMultAcc            0      0.00%     77.63% # Class of committed instruction. (Count)
system.cpu0.commitStats0.committedInstType::FloatDiv            0      0.00%     77.63% # Class of committed instruction. (Count)
system.cpu0.commitStats0.committedInstType::FloatMisc            0      0.00%     77.63% # Class of committed instruction. (Count)
system.cpu0.commitStats0.committedInstType::FloatSqrt            0      0.00%     77.63% # Class of committed instruction. (Count)
system.cpu0.commitStats0.committedInstType::SimdAdd          350      0.20%     77.83% # Class of committed instruction. (Count)
system.cpu0.commitStats0.committedInstType::SimdAddAcc            0      0.00%     77.83% # Class of committed instruction. (Count)
system.cpu0.commitStats0.committedInstType::SimdAlu          782      0.45%     78.28% # Class of committed instruction. (Count)
system.cpu0.commitStats0.committedInstType::SimdCmp            0      0.00%     78.28% # Class of committed instruction. (Count)
system.cpu0.commitStats0.committedInstType::SimdCvt          810      0.46%     78.74% # Class of committed instruction. (Count)
system.cpu0.commitStats0.committedInstType::SimdMisc          803      0.46%     79.20% # Class of committed instruction. (Count)
system.cpu0.commitStats0.committedInstType::SimdMult            0      0.00%     79.20% # Class of committed instruction. (Count)
system.cpu0.commitStats0.committedInstType::SimdMultAcc            0      0.00%     79.20% # Class of committed instruction. (Count)
system.cpu0.commitStats0.committedInstType::SimdMatMultAcc            0      0.00%     79.20% # Class of committed instruction. (Count)
system.cpu0.commitStats0.committedInstType::SimdShift          174      0.10%     79.30% # Class of committed instruction. (Count)
system.cpu0.commitStats0.committedInstType::SimdShiftAcc            0      0.00%     79.30% # Class of committed instruction. (Count)
system.cpu0.commitStats0.committedInstType::SimdDiv            0      0.00%     79.30% # Class of committed instruction. (Count)
system.cpu0.commitStats0.committedInstType::SimdSqrt            0      0.00%     79.30% # Class of committed instruction. (Count)
system.cpu0.commitStats0.committedInstType::SimdFloatAdd            0      0.00%     79.30% # Class of committed instruction. (Count)
system.cpu0.commitStats0.committedInstType::SimdFloatAlu            0      0.00%     79.30% # Class of committed instruction. (Count)
system.cpu0.commitStats0.committedInstType::SimdFloatCmp            0      0.00%     79.30% # Class of committed instruction. (Count)
system.cpu0.commitStats0.committedInstType::SimdFloatCvt            0      0.00%     79.30% # Class of committed instruction. (Count)
system.cpu0.commitStats0.committedInstType::SimdFloatDiv            0      0.00%     79.30% # Class of committed instruction. (Count)
system.cpu0.commitStats0.committedInstType::SimdFloatMisc            0      0.00%     79.30% # Class of committed instruction. (Count)
system.cpu0.commitStats0.committedInstType::SimdFloatMult            0      0.00%     79.30% # Class of committed instruction. (Count)
system.cpu0.commitStats0.committedInstType::SimdFloatMultAcc            0      0.00%     79.30% # Class of committed instruction. (Count)
system.cpu0.commitStats0.committedInstType::SimdFloatMatMultAcc            0      0.00%     79.30% # Class of committed instruction. (Count)
system.cpu0.commitStats0.committedInstType::SimdFloatSqrt            0      0.00%     79.30% # Class of committed instruction. (Count)
system.cpu0.commitStats0.committedInstType::SimdReduceAdd            0      0.00%     79.30% # Class of committed instruction. (Count)
system.cpu0.commitStats0.committedInstType::SimdReduceAlu            0      0.00%     79.30% # Class of committed instruction. (Count)
system.cpu0.commitStats0.committedInstType::SimdReduceCmp            0      0.00%     79.30% # Class of committed instruction. (Count)
system.cpu0.commitStats0.committedInstType::SimdFloatReduceAdd            0      0.00%     79.30% # Class of committed instruction. (Count)
system.cpu0.commitStats0.committedInstType::SimdFloatReduceCmp            0      0.00%     79.30% # Class of committed instruction. (Count)
system.cpu0.commitStats0.committedInstType::SimdAes            0      0.00%     79.30% # Class of committed instruction. (Count)
system.cpu0.commitStats0.committedInstType::SimdAesMix            0      0.00%     79.30% # Class of committed instruction. (Count)
system.cpu0.commitStats0.committedInstType::SimdSha1Hash            0      0.00%     79.30% # Class of committed instruction. (Count)
system.cpu0.commitStats0.committedInstType::SimdSha1Hash2            0      0.00%     79.30% # Class of committed instruction. (Count)
system.cpu0.commitStats0.committedInstType::SimdSha256Hash            0      0.00%     79.30% # Class of committed instruction. (Count)
system.cpu0.commitStats0.committedInstType::SimdSha256Hash2            0      0.00%     79.30% # Class of committed instruction. (Count)
system.cpu0.commitStats0.committedInstType::SimdShaSigma2            0      0.00%     79.30% # Class of committed instruction. (Count)
system.cpu0.commitStats0.committedInstType::SimdShaSigma3            0      0.00%     79.30% # Class of committed instruction. (Count)
system.cpu0.commitStats0.committedInstType::SimdPredAlu            0      0.00%     79.30% # Class of committed instruction. (Count)
system.cpu0.commitStats0.committedInstType::Matrix            0      0.00%     79.30% # Class of committed instruction. (Count)
system.cpu0.commitStats0.committedInstType::MatrixMov            0      0.00%     79.30% # Class of committed instruction. (Count)
system.cpu0.commitStats0.committedInstType::MatrixOP            0      0.00%     79.30% # Class of committed instruction. (Count)
system.cpu0.commitStats0.committedInstType::MemRead        23387     13.40%     92.71% # Class of committed instruction. (Count)
system.cpu0.commitStats0.committedInstType::MemWrite        10777      6.18%     98.88% # Class of committed instruction. (Count)
system.cpu0.commitStats0.committedInstType::FloatMemRead         1025      0.59%     99.47% # Class of committed instruction. (Count)
system.cpu0.commitStats0.committedInstType::FloatMemWrite          923      0.53%    100.00% # Class of committed instruction. (Count)
system.cpu0.commitStats0.committedInstType::IprAccess            0      0.00%    100.00% # Class of committed instruction. (Count)
system.cpu0.commitStats0.committedInstType::InstPrefetch            0      0.00%    100.00% # Class of committed instruction. (Count)
system.cpu0.commitStats0.committedInstType::VectorUnitStrideLoad            0      0.00%    100.00% # Class of committed instruction. (Count)
system.cpu0.commitStats0.committedInstType::VectorUnitStrideStore            0      0.00%    100.00% # Class of committed instruction. (Count)
system.cpu0.commitStats0.committedInstType::VectorUnitStrideMaskLoad            0      0.00%    100.00% # Class of committed instruction. (Count)
system.cpu0.commitStats0.committedInstType::VectorUnitStrideMaskStore            0      0.00%    100.00% # Class of committed instruction. (Count)
system.cpu0.commitStats0.committedInstType::VectorStridedLoad            0      0.00%    100.00% # Class of committed instruction. (Count)
system.cpu0.commitStats0.committedInstType::VectorStridedStore            0      0.00%    100.00% # Class of committed instruction. (Count)
system.cpu0.commitStats0.committedInstType::VectorIndexedLoad            0      0.00%    100.00% # Class of committed instruction. (Count)
system.cpu0.commitStats0.committedInstType::VectorIndexedStore            0      0.00%    100.00% # Class of committed instruction. (Count)
system.cpu0.commitStats0.committedInstType::VectorUnitStrideFaultOnlyFirstLoad            0      0.00%    100.00% # Class of committed instruction. (Count)
system.cpu0.commitStats0.committedInstType::VectorWholeRegisterLoad            0      0.00%    100.00% # Class of committed instruction. (Count)
system.cpu0.commitStats0.committedInstType::VectorWholeRegisterStore            0      0.00%    100.00% # Class of committed instruction. (Count)
system.cpu0.commitStats0.committedInstType::VectorIntegerArith            0      0.00%    100.00% # Class of committed instruction. (Count)
system.cpu0.commitStats0.committedInstType::VectorFloatArith            0      0.00%    100.00% # Class of committed instruction. (Count)
system.cpu0.commitStats0.committedInstType::VectorFloatConvert            0      0.00%    100.00% # Class of committed instruction. (Count)
system.cpu0.commitStats0.committedInstType::VectorIntegerReduce            0      0.00%    100.00% # Class of committed instruction. (Count)
system.cpu0.commitStats0.committedInstType::VectorFloatReduce            0      0.00%    100.00% # Class of committed instruction. (Count)
system.cpu0.commitStats0.committedInstType::VectorMisc            0      0.00%    100.00% # Class of committed instruction. (Count)
system.cpu0.commitStats0.committedInstType::VectorIntegerExtension            0      0.00%    100.00% # Class of committed instruction. (Count)
system.cpu0.commitStats0.committedInstType::VectorConfig            0      0.00%    100.00% # Class of committed instruction. (Count)
system.cpu0.commitStats0.committedInstType::total       174466                       # Class of committed instruction. (Count)
system.cpu0.commitStats0.committedControl::IsControl        18148                       # Class of control type instructions committed (Count)
system.cpu0.commitStats0.committedControl::IsDirectControl        17083                       # Class of control type instructions committed (Count)
system.cpu0.commitStats0.committedControl::IsIndirectControl         1041                       # Class of control type instructions committed (Count)
system.cpu0.commitStats0.committedControl::IsCondControl        15715                       # Class of control type instructions committed (Count)
system.cpu0.commitStats0.committedControl::IsUncondControl         2409                       # Class of control type instructions committed (Count)
system.cpu0.commitStats0.committedControl::IsCall          759                       # Class of control type instructions committed (Count)
system.cpu0.commitStats0.committedControl::IsReturn          754                       # Class of control type instructions committed (Count)
system.cpu0.decode.idleCycles                   71934                       # Number of cycles decode is idle (Cycle)
system.cpu0.decode.blockedCycles               177407                       # Number of cycles decode is blocked (Cycle)
system.cpu0.decode.runCycles                    35910                       # Number of cycles decode is running (Cycle)
system.cpu0.decode.unblockCycles                 6739                       # Number of cycles decode is unblocking (Cycle)
system.cpu0.decode.squashCycles                  2385                       # Number of cycles decode is squashing (Cycle)
system.cpu0.decode.branchResolved               11053                       # Number of times decode resolved a branch (Count)
system.cpu0.decode.branchMispred                  536                       # Number of times decode detected a branch misprediction (Count)
system.cpu0.decode.decodedInsts                288890                       # Number of instructions handled by decode (Count)
system.cpu0.decode.squashedInsts                 2810                       # Number of squashed instructions handled by decode (Count)
system.cpu0.executeStats0.numInsts             233637                       # Number of executed instructions (Count)
system.cpu0.executeStats0.numNop                    0                       # Number of nop insts executed (Count)
system.cpu0.executeStats0.numBranches           21688                       # Number of branches executed (Count)
system.cpu0.executeStats0.numLoadInsts          34916                       # Number of load instructions executed (Count)
system.cpu0.executeStats0.numStoreInsts         15218                       # Number of stores executed (Count)
system.cpu0.executeStats0.instRate           0.549483                       # Inst execution rate ((Count/Cycle))
system.cpu0.executeStats0.numCCRegReads        120736                       # Number of times the CC registers were read (Count)
system.cpu0.executeStats0.numCCRegWrites        83442                       # Number of times the CC registers were written (Count)
system.cpu0.executeStats0.numFpRegReads         11931                       # Number of times the floating registers were read (Count)
[...]
system.ruby.network.data_traffic_distribution.n4.n11            0                       (Unspecified)
system.ruby.network.data_traffic_distribution.n4.n12            0                       (Unspecified)
system.ruby.network.data_traffic_distribution.n4.n13            0                       (Unspecified)
system.ruby.network.data_traffic_distribution.n4.n14            0                       (Unspecified)
system.ruby.network.data_traffic_distribution.n4.n15            0                       (Unspecified)
system.ruby.network.data_traffic_distribution.n4.n2            0                       (Unspecified)
system.ruby.network.data_traffic_distribution.n4.n3            0                       (Unspecified)
system.ruby.network.data_traffic_distribution.n4.n4            0                       (Unspecified)
system.ruby.network.data_traffic_distribution.n4.n5            0                       (Unspecified)
system.ruby.network.data_traffic_distribution.n4.n6            0                       (Unspecified)
system.ruby.network.data_traffic_distribution.n4.n7            0                       (Unspecified)
system.ruby.network.data_traffic_distribution.n4.n8            0                       (Unspecified)
system.ruby.network.data_traffic_distribution.n4.n9            0                       (Unspecified)
system.ruby.network.data_traffic_distribution.n5.n0         3031                       (Unspecified)
system.ruby.network.data_traffic_distribution.n5.n1            0                       (Unspecified)
system.ruby.network.data_traffic_distribution.n5.n10            0                       (Unspecified)
system.ruby.network.data_traffic_distribution.n5.n11            0                       (Unspecified)
system.ruby.network.data_traffic_distribution.n5.n12            0                       (Unspecified)
system.ruby.network.data_traffic_distribution.n5.n13            0                       (Unspecified)
system.ruby.network.data_traffic_distribution.n5.n14            0                       (Unspecified)
system.ruby.network.data_traffic_distribution.n5.n15            0                       (Unspecified)
system.ruby.network.data_traffic_distribution.n5.n2            0                       (Unspecified)
system.ruby.network.data_traffic_distribution.n5.n3            0                       (Unspecified)
system.ruby.network.data_traffic_distribution.n5.n4          988                       (Unspecified)
system.ruby.network.data_traffic_distribution.n5.n5            0                       (Unspecified)
system.ruby.network.data_traffic_distribution.n5.n6            0                       (Unspecified)
system.ruby.network.data_traffic_distribution.n5.n7            0                       (Unspecified)
system.ruby.network.data_traffic_distribution.n5.n8            0                       (Unspecified)
system.ruby.network.data_traffic_distribution.n5.n9            0                       (Unspecified)
system.ruby.network.data_traffic_distribution.n6.n0         3003                       (Unspecified)
system.ruby.network.data_traffic_distribution.n6.n1            0                       (Unspecified)
system.ruby.network.data_traffic_distribution.n6.n10            0                       (Unspecified)
system.ruby.network.data_traffic_distribution.n6.n11            0                       (Unspecified)
system.ruby.network.data_traffic_distribution.n6.n12            0                       (Unspecified)
system.ruby.network.data_traffic_distribution.n6.n13            0                       (Unspecified)
system.ruby.network.data_traffic_distribution.n6.n14            0                       (Unspecified)
system.ruby.network.data_traffic_distribution.n6.n15            0                       (Unspecified)
system.ruby.network.data_traffic_distribution.n6.n2            0                       (Unspecified)
system.ruby.network.data_traffic_distribution.n6.n3            0                       (Unspecified)
system.ruby.network.data_traffic_distribution.n6.n4            0                       (Unspecified)
system.ruby.network.data_traffic_distribution.n6.n5          999                       (Unspecified)
system.ruby.network.data_traffic_distribution.n6.n6            0                       (Unspecified)
system.ruby.network.data_traffic_distribution.n6.n7            0                       (Unspecified)
system.ruby.network.data_traffic_distribution.n6.n8            0                       (Unspecified)
system.ruby.network.data_traffic_distribution.n6.n9            0                       (Unspecified)
system.ruby.network.data_traffic_distribution.n7.n0         2919                       (Unspecified)
system.ruby.network.data_traffic_distribution.n7.n1            0                       (Unspecified)
system.ruby.network.data_traffic_distribution.n7.n10            0                       (Unspecified)
system.ruby.network.data_traffic_distribution.n7.n11            0                       (Unspecified)
system.ruby.network.data_traffic_distribution.n7.n12            0                       (Unspecified)
system.ruby.network.data_traffic_distribution.n7.n13            0                       (Unspecified)
system.ruby.network.data_traffic_distribution.n7.n14            0                       (Unspecified)
system.ruby.network.data_traffic_distribution.n7.n15            0                       (Unspecified)
system.ruby.network.data_traffic_distribution.n7.n2            0                       (Unspecified)
system.ruby.network.data_traffic_distribution.n7.n3         1004                       (Unspecified)
system.ruby.network.data_traffic_distribution.n7.n4            0                       (Unspecified)
system.ruby.network.data_traffic_distribution.n7.n5            0                       (Unspecified)
system.ruby.network.data_traffic_distribution.n7.n6          985                       (Unspecified)
system.ruby.network.data_traffic_distribution.n7.n7            0                       (Unspecified)
system.ruby.network.data_traffic_distribution.n7.n8            0                       (Unspecified)
system.ruby.network.data_traffic_distribution.n7.n9            0                       (Unspecified)
system.ruby.network.data_traffic_distribution.n8.n0         2895                       (Unspecified)
system.ruby.network.data_traffic_distribution.n8.n1            0                       (Unspecified)
system.ruby.network.data_traffic_distribution.n8.n10            0                       (Unspecified)
system.ruby.network.data_traffic_distribution.n8.n11            0                       (Unspecified)
system.ruby.network.data_traffic_distribution.n8.n12            0                       (Unspecified)
system.ruby.network.data_traffic_distribution.n8.n13            0                       (Unspecified)
system.ruby.network.data_traffic_distribution.n8.n14            0                       (Unspecified)
system.ruby.network.data_traffic_distribution.n8.n15            0                       (Unspecified)
system.ruby.network.data_traffic_distribution.n8.n2            0                       (Unspecified)
system.ruby.network.data_traffic_distribution.n8.n3            0                       (Unspecified)
system.ruby.network.data_traffic_distribution.n8.n4            0                       (Unspecified)
system.ruby.network.data_traffic_distribution.n8.n5            0                       (Unspecified)
system.ruby.network.data_traffic_distribution.n8.n6            0                       (Unspecified)
system.ruby.network.data_traffic_distribution.n8.n7            0                       (Unspecified)
system.ruby.network.data_traffic_distribution.n8.n8            0                       (Unspecified)
system.ruby.network.data_traffic_distribution.n8.n9            0                       (Unspecified)
system.ruby.network.data_traffic_distribution.n9.n0         3143                       (Unspecified)
system.ruby.network.data_traffic_distribution.n9.n1            0                       (Unspecified)
system.ruby.network.data_traffic_distribution.n9.n10            0                       (Unspecified)
system.ruby.network.data_traffic_distribution.n9.n11            0                       (Unspecified)
system.ruby.network.data_traffic_distribution.n9.n12            0                       (Unspecified)
system.ruby.network.data_traffic_distribution.n9.n13            0                       (Unspecified)
system.ruby.network.data_traffic_distribution.n9.n14            0                       (Unspecified)
system.ruby.network.data_traffic_distribution.n9.n15            0                       (Unspecified)
system.ruby.network.data_traffic_distribution.n9.n2            0                       (Unspecified)
system.ruby.network.data_traffic_distribution.n9.n3            0                       (Unspecified)
system.ruby.network.data_traffic_distribution.n9.n4            0                       (Unspecified)
system.ruby.network.data_traffic_distribution.n9.n5            0                       (Unspecified)
system.ruby.network.data_traffic_distribution.n9.n6            0                       (Unspecified)
system.ruby.network.data_traffic_distribution.n9.n7            0                       (Unspecified)
system.ruby.network.data_traffic_distribution.n9.n8         1007                       (Unspecified)
system.ruby.network.data_traffic_distribution.n9.n9            0                       (Unspecified)
system.ruby.network.ext_in_link_utilization       758364                       (Unspecified)
system.ruby.network.ext_out_link_utilization       758364                       (Unspecified)
system.ruby.network.flit_network_latency |  1659801500                       | 11869487000                       |   198569500                       |    40070500                       |    40213000                       (Unspecified)
system.ruby.network.flit_queueing_latency |   191042000                       |  2071549500                       |    17173000                       |    15926000                       |    15926000                       (Unspecified)
system.ruby.network.flits_injected       |      159146     20.99%     20.99% |      533019     70.29%     91.27% |       34346      4.53%     95.80% |       15927      2.10%     97.90% |       15926      2.10%    100.00% (Unspecified)
system.ruby.network.flits_injected::total       758364                       (Unspecified)
system.ruby.network.flits_received       |      159146     20.99%     20.99% |      533019     70.29%     91.27% |       34346      4.53%     95.80% |       15926      2.10%     97.90% |       15926      2.10%    100.00% (Unspecified)
system.ruby.network.flits_received::total       758363                       (Unspecified)
system.ruby.network.int_link_utilization      2212044                       (Unspecified)
system.ruby.network.packet_network_latency |  1087887000                       |  2861160500                       |   198569500                       |    40070500                       |    40213000                       (Unspecified)
system.ruby.network.packet_queueing_latency |   151424000                       |   477929500                       |    17173000                       |    15926000                       |    15926000                       (Unspecified)
system.ruby.network.packets_injected     |      126490     39.32%     39.32% |      129027     40.11%     79.42% |       34346     10.68%     90.10% |       15927      4.95%     95.05% |       15926      4.95%    100.00% (Unspecified)
system.ruby.network.packets_injected::total       321716                       (Unspecified)
system.ruby.network.packets_received     |      126490     39.32%     39.32% |      129027     40.11%     79.42% |       34346     10.68%     90.10% |       15926      4.95%     95.05% |       15926      4.95%    100.00% (Unspecified)
system.ruby.network.packets_received::total       321715                       (Unspecified)
system.ruby.network.routers00.buffer_reads       728513                       (Unspecified)
system.ruby.network.routers00.buffer_writes       728513                       (Unspecified)
system.ruby.network.routers00.crossbar_activity       728513                       (Unspecified)
system.ruby.network.routers00.sw_input_arbiter_activity       880812                       (Unspecified)
system.ruby.network.routers00.sw_output_arbiter_activity       728513                       (Unspecified)
system.ruby.network.routers01.buffer_reads       334599                       (Unspecified)
system.ruby.network.routers01.buffer_writes       334599                       (Unspecified)
system.ruby.network.routers01.crossbar_activity       334599                       (Unspecified)
system.ruby.network.routers01.sw_input_arbiter_activity       340516                       (Unspecified)
system.ruby.network.routers01.sw_output_arbiter_activity       334599                       (Unspecified)
system.ruby.network.routers02.buffer_reads       224822                       (Unspecified)
system.ruby.network.routers02.buffer_writes       224822                       (Unspecified)
system.ruby.network.routers02.crossbar_activity       224822                       (Unspecified)
system.ruby.network.routers02.sw_input_arbiter_activity       228157                       (Unspecified)
system.ruby.network.routers02.sw_output_arbiter_activity       224822                       (Unspecified)
system.ruby.network.routers03.buffer_reads       114284                       (Unspecified)
system.ruby.network.routers03.buffer_writes       114284                       (Unspecified)
system.ruby.network.routers03.crossbar_activity       114284                       (Unspecified)
system.ruby.network.routers03.sw_input_arbiter_activity       114877                       (Unspecified)
system.ruby.network.routers03.sw_output_arbiter_activity       114284                       (Unspecified)
system.ruby.network.routers04.buffer_reads       353163                       (Unspecified)
system.ruby.network.routers04.buffer_writes       353163                       (Unspecified)
system.ruby.network.routers04.crossbar_activity       353163                       (Unspecified)
system.ruby.network.routers04.sw_input_arbiter_activity       451291                       (Unspecified)
system.ruby.network.routers04.sw_output_arbiter_activity       353163                       (Unspecified)
system.ruby.network.routers05.buffer_reads       139476                       (Unspecified)
system.ruby.network.routers05.buffer_writes       139476                       (Unspecified)
system.ruby.network.routers05.crossbar_activity       139476                       (Unspecified)
system.ruby.network.routers05.sw_input_arbiter_activity       144864                       (Unspecified)
system.ruby.network.routers05.sw_output_arbiter_activity       139476                       (Unspecified)
system.ruby.network.routers06.buffer_reads       115808                       (Unspecified)
system.ruby.network.routers06.buffer_writes       115808                       (Unspecified)
system.ruby.network.routers06.crossbar_activity       115808                       (Unspecified)
system.ruby.network.routers06.sw_input_arbiter_activity       118967                       (Unspecified)
system.ruby.network.routers06.sw_output_arbiter_activity       115808                       (Unspecified)
system.ruby.network.routers07.buffer_reads        93846                       (Unspecified)
system.ruby.network.routers07.buffer_writes        93846                       (Unspecified)
system.ruby.network.routers07.crossbar_activity        93846                       (Unspecified)
system.ruby.network.routers07.sw_input_arbiter_activity        94486                       (Unspecified)
system.ruby.network.routers07.sw_output_arbiter_activity        93846                       (Unspecified)
system.ruby.network.routers08.buffer_reads       236716                       (Unspecified)
system.ruby.network.routers08.buffer_writes       236716                       (Unspecified)
system.ruby.network.routers08.crossbar_activity       236716                       (Unspecified)
system.ruby.network.routers08.sw_input_arbiter_activity       295490                       (Unspecified)
system.ruby.network.routers08.sw_output_arbiter_activity       236716                       (Unspecified)
system.ruby.network.routers09.buffer_reads       120458                       (Unspecified)
system.ruby.network.routers09.buffer_writes       120458                       (Unspecified)
system.ruby.network.routers09.crossbar_activity       120458                       (Unspecified)
system.ruby.network.routers09.sw_input_arbiter_activity       126932                       (Unspecified)
system.ruby.network.routers09.sw_output_arbiter_activity       120458                       (Unspecified)
system.ruby.network.routers10.buffer_reads        96236                       (Unspecified)
system.ruby.network.routers10.buffer_writes        96236                       (Unspecified)
system.ruby.network.routers10.crossbar_activity        96236                       (Unspecified)
system.ruby.network.routers10.sw_input_arbiter_activity        99978                       (Unspecified)
system.ruby.network.routers10.sw_output_arbiter_activity        96236                       (Unspecified)
system.ruby.network.routers11.buffer_reads        73687                       (Unspecified)
system.ruby.network.routers11.buffer_writes        73687                       (Unspecified)
system.ruby.network.routers11.crossbar_activity        73687                       (Unspecified)
system.ruby.network.routers11.sw_input_arbiter_activity        74267                       (Unspecified)
system.ruby.network.routers11.sw_output_arbiter_activity        73687                       (Unspecified)
system.ruby.network.routers12.buffer_reads       118293                       (Unspecified)
system.ruby.network.routers12.buffer_writes       118293                       (Unspecified)
system.ruby.network.routers12.crossbar_activity       118293                       (Unspecified)
system.ruby.network.routers12.sw_input_arbiter_activity       125993                       (Unspecified)
system.ruby.network.routers12.sw_output_arbiter_activity       118293                       (Unspecified)
system.ruby.network.routers13.buffer_reads        95811                       (Unspecified)
system.ruby.network.routers13.buffer_writes        95811                       (Unspecified)
system.ruby.network.routers13.crossbar_activity        95811                       (Unspecified)
system.ruby.network.routers13.sw_input_arbiter_activity       102309                       (Unspecified)
system.ruby.network.routers13.sw_output_arbiter_activity        95811                       (Unspecified)
system.ruby.network.routers14.buffer_reads        74181                       (Unspecified)
system.ruby.network.routers14.buffer_writes        74181                       (Unspecified)
system.ruby.network.routers14.crossbar_activity        74181                       (Unspecified)
system.ruby.network.routers14.sw_input_arbiter_activity        78302                       (Unspecified)
system.ruby.network.routers14.sw_output_arbiter_activity        74181                       (Unspecified)
system.ruby.network.routers15.buffer_reads        50515                       (Unspecified)
system.ruby.network.routers15.buffer_writes        50515                       (Unspecified)
system.ruby.network.routers15.crossbar_activity        50515                       (Unspecified)
system.ruby.network.routers15.sw_input_arbiter_activity        51008                       (Unspecified)
system.ruby.network.routers15.sw_output_arbiter_activity        50515                       (Unspecified)

---------- End Simulation Statistics   ----------
