
---------- Begin Simulation Statistics ----------
simSeconds                                   0.002222                       # Number of seconds simulated (Second)
simTicks                                   2222407500                       # Number of ticks simulated (Tick)
finalTick                                  2222407500                       # Number of ticks from beginning of simulation (restored from checkpoints and never reset) (Tick)
simFreq                                  1000000000000                       # The number of ticks per simulated second ((Tick/Second))
hostSeconds                                    162.68                       # Real time elapsed on the host (Second)
hostTickRate                                 13661044                       # The number of ticks simulated per host second (ticks/s) ((Tick/Second))
hostMemory                                    1628660                       # Number of bytes of host memory used (Byte)
simInsts                                     25886108                       # Number of instructions simulated (Count)
simOps                                       45113264                       # Number of ops (including micro ops) simulated (Count)
hostInstRate                                   159121                       # Simulator instruction rate (inst/s) ((Count/Second))
hostOpRate                                     277309                       # Simulator op (including micro ops) rate (op/s) ((Count/Second))
system.clk_domain.clock                          1000                       # Clock period in ticks (Tick)
system.cpu0.numCycles                         4361750                       # Number of cpu cycles simulated (Cycle)
system.cpu0.cpi                              0.755767                       # CPI: cycles per instruction (core level) ((Cycle/Count))
system.cpu0.ipc                              1.323159                       # IPC: instructions per cycle (core level) ((Count/Cycle))
system.cpu0.numWorkItemsStarted                     0                       # Number of work items this cpu started (Count)
system.cpu0.numWorkItemsCompleted                   0                       # Number of work items this cpu completed (Count)
system.cpu0.instsAdded                       11179864                       # Number of instructions added to the IQ (excludes non-spec) (Count)
system.cpu0.nonSpecInstsAdded                     424                       # Number of non-speculative instructions added to the IQ (Count)
system.cpu0.instsIssued                      10754882                       # Number of instructions issued (Count)
system.cpu0.squashedInstsIssued                  1680                       # Number of squashed instructions issued (Count)
system.cpu0.squashedInstsExamined             1098098                       # Number of squashed instructions iterated over during squash; mainly for profiling (Count)
system.cpu0.squashedOperandsExamined          2712658                       # Number of squashed operands that are examined and possibly removed from graph (Count)
system.cpu0.squashedNonSpecRemoved                154                       # Number of squashed non-spec instructions that were removed (Count)
system.cpu0.numIssuedDist::samples            4201789                       # Number of insts issued each cycle (Count)
system.cpu0.numIssuedDist::mean              2.559596                       # Number of insts issued each cycle (Count)
system.cpu0.numIssuedDist::stdev             2.497807                       # Number of insts issued each cycle (Count)
system.cpu0.numIssuedDist::underflows               0      0.00%      0.00% # Number of insts issued each cycle (Count)
system.cpu0.numIssuedDist::0                  1313094     31.25%     31.25% # Number of insts issued each cycle (Count)
system.cpu0.numIssuedDist::1                   559958     13.33%     44.58% # Number of insts issued each cycle (Count)
system.cpu0.numIssuedDist::2                   466479     11.10%     55.68% # Number of insts issued each cycle (Count)
system.cpu0.numIssuedDist::3                   439894     10.47%     66.15% # Number of insts issued each cycle (Count)
system.cpu0.numIssuedDist::4                   450718     10.73%     76.88% # Number of insts issued each cycle (Count)
system.cpu0.numIssuedDist::5                   330935      7.88%     84.75% # Number of insts issued each cycle (Count)
system.cpu0.numIssuedDist::6                   241127      5.74%     90.49% # Number of insts issued each cycle (Count)
system.cpu0.numIssuedDist::7                   158697      3.78%     94.27% # Number of insts issued each cycle (Count)
system.cpu0.numIssuedDist::8                   240887      5.73%    100.00% # Number of insts issued each cycle (Count)
system.cpu0.numIssuedDist::overflows                0      0.00%    100.00% # Number of insts issued each cycle (Count)
system.cpu0.numIssuedDist::min_value                0                       # Number of insts issued each cycle (Count)
system.cpu0.numIssuedDist::max_value                8                       # Number of insts issued each cycle (Count)
system.cpu0.numIssuedDist::total              4201789                       # Number of insts issued each cycle (Count)
system.cpu0.statFuBusy::No_OpClass                  0      0.00%      0.00% # attempts to use FU when none available (Count)
system.cpu0.statFuBusy::IntAlu                  42401     40.80%     40.80% # attempts to use FU when none available (Count)
system.cpu0.statFuBusy::IntMult                     0      0.00%     40.80% # attempts to use FU when none available (Count)
system.cpu0.statFuBusy::IntDiv                      0      0.00%     40.80% # attempts to use FU when none available (Count)
system.cpu0.statFuBusy::FloatAdd                 1743      1.68%     42.48% # attempts to use FU when none available (Count)
system.cpu0.statFuBusy::FloatCmp                    0      0.00%     42.48% # attempts to use FU when none available (Count)
system.cpu0.statFuBusy::FloatCvt                    0      0.00%     42.48% # attempts to use FU when none available (Count)
system.cpu0.statFuBusy::FloatMult                   0      0.00%     42.48% # attempts to use FU when none available (Count)
system.cpu0.statFuBusy::FloatMultAcc                0      0.00%     42.48% # attempts to use FU when none available (Count)
system.cpu0.statFuBusy::FloatDiv                    0      0.00%     42.48% # attempts to use FU when none available (Count)
system.cpu0.statFuBusy::FloatMisc                   0      0.00%     42.48% # attempts to use FU when none available (Count)
system.cpu0.statFuBusy::FloatSqrt                   0      0.00%     42.48% # attempts to use FU when none available (Count)
system.cpu0.statFuBusy::SimdAdd                     5      0.00%     42.48% # attempts to use FU when none available (Count)
system.cpu0.statFuBusy::SimdAddAcc                  0      0.00%     42.48% # attempts to use FU when none available (Count)
system.cpu0.statFuBusy::SimdAlu                   167      0.16%     42.64% # attempts to use FU when none available (Count)
system.cpu0.statFuBusy::SimdCmp                     0      0.00%     42.64% # attempts to use FU when none available (Count)
system.cpu0.statFuBusy::SimdCvt                   215      0.21%     42.85% # attempts to use FU when none available (Count)
system.cpu0.statFuBusy::SimdMisc                    0      0.00%     42.85% # attempts to use FU when none available (Count)
system.cpu0.statFuBusy::SimdMult                    0      0.00%     42.85% # attempts to use FU when none available (Count)
system.cpu0.statFuBusy::SimdMultAcc                 0      0.00%     42.85% # attempts to use FU when none available (Count)
system.cpu0.statFuBusy::SimdMatMultAcc              0      0.00%     42.85% # attempts to use FU when none available (Count)
system.cpu0.statFuBusy::SimdShift                 124      0.12%     42.97% # attempts to use FU when none available (Count)
system.cpu0.statFuBusy::SimdShiftAcc                0      0.00%     42.97% # attempts to use FU when none available (Count)
system.cpu0.statFuBusy::SimdDiv                     0      0.00%     42.97% # attempts to use FU when none available (Count)
system.cpu0.statFuBusy::SimdSqrt                    0      0.00%     42.97% # attempts to use FU when none available (Count)
system.cpu0.statFuBusy::SimdFloatAdd                0      0.00%     42.97% # attempts to use FU when none available (Count)
system.cpu0.statFuBusy::SimdFloatAlu                0      0.00%     42.97% # attempts to use FU when none available (Count)
system.cpu0.statFuBusy::SimdFloatCmp                0      0.00%     42.97% # attempts to use FU when none available (Count)
system.cpu0.statFuBusy::SimdFloatCvt                0      0.00%     42.97% # attempts to use FU when none available (Count)
system.cpu0.statFuBusy::SimdFloatDiv                0      0.00%     42.97% # attempts to use FU when none available (Count)
system.cpu0.statFuBusy::SimdFloatMisc               0      0.00%     42.97% # attempts to use FU when none available (Count)
system.cpu0.statFuBusy::SimdFloatMult               1      0.00%     42.97% # attempts to use FU when none available (Count)
system.cpu0.statFuBusy::SimdFloatMultAcc            0      0.00%     42.97% # attempts to use FU when none available (Count)
system.cpu0.statFuBusy::SimdFloatMatMultAcc            0      0.00%     42.97% # attempts to use FU when none available (Count)
system.cpu0.statFuBusy::SimdFloatSqrt               0      0.00%     42.97% # attempts to use FU when none available (Count)
system.cpu0.statFuBusy::SimdReduceAdd               0      0.00%     42.97% # attempts to use FU when none available (Count)
system.cpu0.statFuBusy::SimdReduceAlu               0      0.00%     42.97% # attempts to use FU when none available (Count)
system.cpu0.statFuBusy::SimdReduceCmp               0      0.00%     42.97% # attempts to use FU when none available (Count)
system.cpu0.statFuBusy::SimdFloatReduceAdd            0      0.00%     42.97% # attempts to use FU when none available (Count)
system.cpu0.statFuBusy::SimdFloatReduceCmp            0      0.00%     42.97% # attempts to use FU when none available (Count)
system.cpu0.statFuBusy::SimdAes                     0      0.00%     42.97% # attempts to use FU when none available (Count)
system.cpu0.statFuBusy::SimdAesMix                  0      0.00%     42.97% # attempts to use FU when none available (Count)
system.cpu0.statFuBusy::SimdSha1Hash                0      0.00%     42.97% # attempts to use FU when none available (Count)
system.cpu0.statFuBusy::SimdSha1Hash2               0      0.00%     42.97% # attempts to use FU when none available (Count)
system.cpu0.statFuBusy::SimdSha256Hash              0      0.00%     42.97% # attempts to use FU when none available (Count)
system.cpu0.statFuBusy::SimdSha256Hash2             0      0.00%     42.97% # attempts to use FU when none available (Count)
system.cpu0.statFuBusy::SimdShaSigma2               0      0.00%     42.97% # attempts to use FU when none available (Count)
system.cpu0.statFuBusy::SimdShaSigma3               0      0.00%     42.97% # attempts to use FU when none available (Count)
system.cpu0.statFuBusy::SimdPredAlu                 0      0.00%     42.97% # attempts to use FU when none available (Count)
system.cpu0.statFuBusy::Matrix                      0      0.00%     42.97% # attempts to use FU when none available (Count)
system.cpu0.statFuBusy::MatrixMov                   0      0.00%     42.97% # attempts to use FU when none available (Count)
system.cpu0.statFuBusy::MatrixOP                    0      0.00%     42.97% # attempts to use FU when none available (Count)
system.cpu0.statFuBusy::MemRead                 29533     28.42%     71.39% # attempts to use FU when none available (Count)
system.cpu0.statFuBusy::MemWrite                11124     10.70%     82.09% # attempts to use FU when none available (Count)
system.cpu0.statFuBusy::FloatMemRead            18348     17.66%     99.75% # attempts to use FU when none available (Count)
system.cpu0.statFuBusy::FloatMemWrite             262      0.25%    100.00% # attempts to use FU when none available (Count)
system.cpu0.statFuBusy::IprAccess                   0      0.00%    100.00% # attempts to use FU when none available (Count)
system.cpu0.statFuBusy::InstPrefetch                0      0.00%    100.00% # attempts to use FU when none available (Count)
system.cpu0.statFuBusy::VectorUnitStrideLoad            0      0.00%    100.00% # attempts to use FU when none available (Count)
system.cpu0.statFuBusy::VectorUnitStrideStore            0      0.00%    100.00% # attempts to use FU when none available (Count)
system.cpu0.statFuBusy::VectorUnitStrideMaskLoad            0      0.00%    100.00% # attempts to use FU when none available (Count)
system.cpu0.statFuBusy::VectorUnitStrideMaskStore            0      0.00%    100.00% # attempts to use FU when none available (Count)
system.cpu0.statFuBusy::VectorStridedLoad            0      0.00%    100.00% # attempts to use FU when none available (Count)
system.cpu0.statFuBusy::VectorStridedStore            0      0.00%    100.00% # attempts to use FU when none available (Count)
system.cpu0.statFuBusy::VectorIndexedLoad            0      0.00%    100.00% # attempts to use FU when none available (Count)
system.cpu0.statFuBusy::VectorIndexedStore            0      0.00%    100.00% # attempts to use FU when none available (Count)
system.cpu0.statFuBusy::VectorUnitStrideFaultOnlyFirstLoad            0      0.00%    100.00% # attempts to use FU when none available (Count)
system.cpu0.statFuBusy::VectorWholeRegisterLoad            0      0.00%    100.00% # attempts to use FU when none available (Count)
system.cpu0.statFuBusy::VectorWholeRegisterStore            0      0.00%    100.00% # attempts to use FU when none available (Count)
system.cpu0.statFuBusy::VectorIntegerArith            0      0.00%    100.00% # attempts to use FU when none available (Count)
system.cpu0.statFuBusy::VectorFloatArith            0      0.00%    100.00% # attempts to use FU when none available (Count)
system.cpu0.statFuBusy::VectorFloatConvert            0      0.00%    100.00% # attempts to use FU when none available (Count)
system.cpu0.statFuBusy::VectorIntegerReduce            0      0.00%    100.00% # attempts to use FU when none available (Count)
system.cpu0.statFuBusy::VectorFloatReduce            0      0.00%    100.00% # attempts to use FU when none available (Count)
system.cpu0.statFuBusy::VectorMisc                  0      0.00%    100.00% # attempts to use FU when none available (Count)
system.cpu0.statFuBusy::VectorIntegerExtension            0      0.00%    100.00% # attempts to use FU when none available (Count)
system.cpu0.statFuBusy::VectorConfig                0      0.00%    100.00% # attempts to use FU when none available (Count)
system.cpu0.statIssuedInstType_0::No_OpClass        37929      0.35%      0.35% # Number of instructions issued per FU type, per thread (Count)
system.cpu0.statIssuedInstType_0::IntAlu      6159825     57.27%     57.63% # Number of instructions issued per FU type, per thread (Count)
system.cpu0.statIssuedInstType_0::IntMult         4153      0.04%     57.67% # Number of instructions issued per FU type, per thread (Count)
system.cpu0.statIssuedInstType_0::IntDiv        36919      0.34%     58.01% # Number of instructions issued per FU type, per thread (Count)
system.cpu0.statIssuedInstType_0::FloatAdd       785654      7.31%     65.31% # Number of instructions issued per FU type, per thread (Count)
system.cpu0.statIssuedInstType_0::FloatCmp            0      0.00%     65.31% # Number of instructions issued per FU type, per thread (Count)
system.cpu0.statIssuedInstType_0::FloatCvt          160      0.00%     65.32% # Number of instructions issued per FU type, per thread (Count)
system.cpu0.statIssuedInstType_0::FloatMult            0      0.00%     65.32% # Number of instructions issued per FU type, per thread (Count)
system.cpu0.statIssuedInstType_0::FloatMultAcc            0      0.00%     65.32% # Number of instructions issued per FU type, per thread (Count)
system.cpu0.statIssuedInstType_0::FloatDiv            0      0.00%     65.32% # Number of instructions issued per FU type, per thread (Count)
system.cpu0.statIssuedInstType_0::FloatMisc            0      0.00%     65.32% # Number of instructions issued per FU type, per thread (Count)
system.cpu0.statIssuedInstType_0::FloatSqrt            0      0.00%     65.32% # Number of instructions issued per FU type, per thread (Count)
system.cpu0.statIssuedInstType_0::SimdAdd         6201      0.06%     65.37% # Number of instructions issued per FU type, per thread (Count)
system.cpu0.statIssuedInstType_0::SimdAddAcc            0      0.00%     65.37% # Number of instructions issued per FU type, per thread (Count)
system.cpu0.statIssuedInstType_0::SimdAlu       316497      2.94%     68.32% # Number of instructions issued per FU type, per thread (Count)
system.cpu0.statIssuedInstType_0::SimdCmp            0      0.00%     68.32% # Number of instructions issued per FU type, per thread (Count)
system.cpu0.statIssuedInstType_0::SimdCvt        13210      0.12%     68.44% # Number of instructions issued per FU type, per thread (Count)
system.cpu0.statIssuedInstType_0::SimdMisc        66403      0.62%     69.06% # Number of instructions issued per FU type, per thread (Count)
system.cpu0.statIssuedInstType_0::SimdMult            0      0.00%     69.06% # Number of instructions issued per FU type, per thread (Count)
system.cpu0.statIssuedInstType_0::SimdMultAcc            0      0.00%     69.06% # Number of instructions issued per FU type, per thread (Count)
system.cpu0.statIssuedInstType_0::SimdMatMultAcc            0      0.00%     69.06% # Number of instructions issued per FU type, per thread (Count)
system.cpu0.statIssuedInstType_0::SimdShift         1226      0.01%     69.07% # Number of instructions issued per FU type, per thread (Count)
system.cpu0.statIssuedInstType_0::SimdShiftAcc            0      0.00%     69.07% # Number of instructions issued per FU type, per thread (Count)
system.cpu0.statIssuedInstType_0::SimdDiv            0      0.00%     69.07% # Number of instructions issued per FU type, per thread (Count)
system.cpu0.statIssuedInstType_0::SimdSqrt            0      0.00%     69.07% # Number of instructions issued per FU type, per thread (Count)
system.cpu0.statIssuedInstType_0::SimdFloatAdd       351233      3.27%     72.33% # Number of instructions issued per FU type, per thread (Count)
system.cpu0.statIssuedInstType_0::SimdFloatAlu            0      0.00%     72.33% # Number of instructions issued per FU type, per thread (Count)
system.cpu0.statIssuedInstType_0::SimdFloatCmp            0      0.00%     72.33% # Number of instructions issued per FU type, per thread (Count)
system.cpu0.statIssuedInstType_0::SimdFloatCvt        95988      0.89%     73.23% # Number of instructions issued per FU type, per thread (Count)
system.cpu0.statIssuedInstType_0::SimdFloatDiv        22529      0.21%     73.44% # Number of instructions issued per FU type, per thread (Count)
system.cpu0.statIssuedInstType_0::SimdFloatMisc            0      0.00%     73.44% # Number of instructions issued per FU type, per thread (Count)
system.cpu0.statIssuedInstType_0::SimdFloatMult       320213      2.98%     76.41% # Number of instructions issued per FU type, per thread (Count)
system.cpu0.statIssuedInstType_0::SimdFloatMultAcc            0      0.00%     76.41% # Number of instructions issued per FU type, per thread (Count)
system.cpu0.statIssuedInstType_0::SimdFloatMatMultAcc            0      0.00%     76.41% # Number of instructions issued per FU type, per thread (Count)
system.cpu0.statIssuedInstType_0::SimdFloatSqrt            0      0.00%     76.41% # Number of instructions issued per FU type, per thread (Count)
system.cpu0.statIssuedInstType_0::SimdReduceAdd            0      0.00%     76.41% # Number of instructions issued per FU type, per thread (Count)
system.cpu0.statIssuedInstType_0::SimdReduceAlu            0      0.00%     76.41% # Number of instructions issued per FU type, per thread (Count)
system.cpu0.statIssuedInstType_0::SimdReduceCmp            0      0.00%     76.41% # Number of instructions issued per FU type, per thread (Count)
system.cpu0.statIssuedInstType_0::SimdFloatReduceAdd            0      0.00%     76.41% # Number of instructions issued per FU type, per thread (Count)
system.cpu0.statIssuedInstType_0::SimdFloatReduceCmp            0      0.00%     76.41% # Number of instructions issued per FU type, per thread (Count)
system.cpu0.statIssuedInstType_0::SimdAes            0      0.00%     76.41% # Number of instructions issued per FU type, per thread (Count)
system.cpu0.statIssuedInstType_0::SimdAesMix            0      0.00%     76.41% # Number of instructions issued per FU type, per thread (Count)
system.cpu0.statIssuedInstType_0::SimdSha1Hash            0      0.00%     76.41% # Number of instructions issued per FU type, per thread (Count)
system.cpu0.statIssuedInstType_0::SimdSha1Hash2            0      0.00%     76.41% # Number of instructions issued per FU type, per thread (Count)
system.cpu0.statIssuedInstType_0::SimdSha256Hash            0      0.00%     76.41% # Number of instructions issued per FU type, per thread (Count)
system.cpu0.statIssuedInstType_0::SimdSha256Hash2            0      0.00%     76.41% # Number of instructions issued per FU type, per thread (Count)
system.cpu0.statIssuedInstType_0::SimdShaSigma2            0      0.00%     76.41% # Number of instructions issued per FU type, per thread (Count)
system.cpu0.statIssuedInstType_0::SimdShaSigma3            0      0.00%     76.41% # Number of instructions issued per FU type, per thread (Count)
system.cpu0.statIssuedInstType_0::SimdPredAlu            0      0.00%     76.41% # Number of instructions issued per FU type, per thread (Count)
system.cpu0.statIssuedInstType_0::Matrix            0      0.00%     76.41% # Number of instructions issued per FU type, per thread (Count)
system.cpu0.statIssuedInstType_0::MatrixMov            0      0.00%     76.41% # Number of instructions issued per FU type, per thread (Count)
system.cpu0.statIssuedInstType_0::MatrixOP            0      0.00%     76.41% # Number of instructions issued per FU type, per thread (Count)
system.cpu0.statIssuedInstType_0::MemRead      1151024     10.70%     87.12% # Number of instructions issued per FU type, per thread (Count)
system.cpu0.statIssuedInstType_0::MemWrite       509808      4.74%     91.86% # Number of instructions issued per FU type, per thread (Count)
system.cpu0.statIssuedInstType_0::FloatMemRead       711702      6.62%     98.47% # Number of instructions issued per FU type, per thread (Count)
system.cpu0.statIssuedInstType_0::FloatMemWrite       164208      1.53%    100.00% # Number of instructions issued per FU type, per thread (Count)
system.cpu0.statIssuedInstType_0::IprAccess            0      0.00%    100.00% # Number of instructions issued per FU type, per thread (Count)
system.cpu0.statIssuedInstType_0::InstPrefetch            0      0.00%    100.00% # Number of instructions issued per FU type, per thread (Count)
system.cpu0.statIssuedInstType_0::VectorUnitStrideLoad            0      0.00%    100.00% # Number of instructions issued per FU type, per thread (Count)
system.cpu0.statIssuedInstType_0::VectorUnitStrideStore            0      0.00%    100.00% # Number of instructions issued per FU type, per thread (Count)
system.cpu0.statIssuedInstType_0::VectorUnitStrideMaskLoad            0      0.00%    100.00% # Number of instructions issued per FU type, per thread (Count)
system.cpu0.statIssuedInstType_0::VectorUnitStrideMaskStore            0      0.00%    100.00% # Number of instructions issued per FU type, per thread (Count)
system.cpu0.statIssuedInstType_0::VectorStridedLoad            0      0.00%    100.00% # Number of instructions issued per FU type, per thread (Count)
system.cpu0.statIssuedInstType_0::VectorStridedStore            0      0.00%    100.00% # Number of instructions issued per FU type, per thread (Count)
system.cpu0.statIssuedInstType_0::VectorIndexedLoad            0      0.00%    100.00% # Number of instructions issued per FU type, per thread (Count)
system.cpu0.statIssuedInstType_0::VectorIndexedStore            0      0.00%    100.00% # Number of instructions issued per FU type, per thread (Count)
system.cpu0.statIssuedInstType_0::VectorUnitStrideFaultOnlyFirstLoad            0      0.00%    100.00% # Number of instructions issued per FU type, per thread (Count)
system.cpu0.statIssuedInstType_0::VectorWholeRegisterLoad            0      0.00%    100.00% # Number of instructions issued per FU type, per thread (Count)
system.cpu0.statIssuedInstType_0::VectorWholeRegisterStore            0      0.00%    100.00% # Number of instructions issued per FU type, per thread (Count)
system.cpu0.statIssuedInstType_0::VectorIntegerArith            0      0.00%    100.00% # Number of instructions issued per FU type, per thread (Count)
system.cpu0.statIssuedInstType_0::VectorFloatArith            0      0.00%    100.00% # Number of instructions issued per FU type, per thread (Count)
system.cpu0.statIssuedInstType_0::VectorFloatConvert            0      0.00%    100.00% # Number of instructions issued per FU type, per thread (Count)
system.cpu0.statIssuedInstType_0::VectorIntegerReduce            0      0.00%    100.00% # Number of instructions issued per FU type, per thread (Count)
system.cpu0.statIssuedInstType_0::VectorFloatReduce            0      0.00%    100.00% # Number of instructions issued per FU type, per thread (Count)
system.cpu0.statIssuedInstType_0::VectorMisc            0      0.00%    100.00% # Number of instructions issued per FU type, per thread (Count)
system.cpu0.statIssuedInstType_0::VectorIntegerExtension            0      0.00%    100.00% # Number of instructions issued per FU type, per thread (Count)
system.cpu0.statIssuedInstType_0::VectorConfig            0      0.00%    100.00% # Number of instructions issued per FU type, per thread (Count)
system.cpu0.statIssuedInstType_0::total      10754882                       # Number of instructions issued per FU type, per thread (Count)
system.cpu0.issueRate                        2.465726                       # Inst issue rate ((Count/Cycle))
system.cpu0.fuBusy                             103923                       # FU busy when requested (Count)
system.cpu0.fuBusyRate                       0.009663                       # FU busy rate (busy events/executed inst) ((Count/Count))
system.cpu0.intInstQueueReads                19453425                       # Number of integer instruction queue reads (Count)
system.cpu0.intInstQueueWrites                9035202                       # Number of integer instruction queue writes (Count)
system.cpu0.intInstQueueWakeupAccesses        7512158                       # Number of integer instruction queue wakeup accesses (Count)
system.cpu0.fpInstQueueReads                  6363731                       # Number of floating instruction queue reads (Count)
system.cpu0.fpInstQueueWrites                 3243521                       # Number of floating instruction queue writes (Count)
system.cpu0.fpInstQueueWakeupAccesses         3133968                       # Number of floating instruction queue wakeup accesses (Count)
system.cpu0.vecInstQueueReads                       0                       # Number of vector instruction queue reads (Count)
system.cpu0.vecInstQueueWrites                      0                       # Number of vector instruction queue writes (Count)
system.cpu0.vecInstQueueWakeupAccesses              0                       # Number of vector instruction queue wakeup accesses (Count)
system.cpu0.intAluAccesses                    7628686                       # Number of integer alu accesses (Count)
system.cpu0.fpAluAccesses                     3192190                       # Number of floating point alu accesses (Count)
system.cpu0.vecAluAccesses                          0                       # Number of vector alu accesses (Count)
system.cpu0.numSquashedInsts                    25058                       # Number of squashed instructions skipped in execute (Count)
system.cpu0.numSwp                                  0                       # Number of swp insts executed (Count)
system.cpu0.timesIdled                           1343                       # Number of times that the entire CPU went into an idle state and unscheduled itself (Count)
system.cpu0.idleCycles                         159961                       # Total number of cycles that the CPU has spent unscheduled due to idling (Cycle)
system.cpu0.MemDepUnit__0.insertedLoads       1856741                       # Number of loads inserted to the mem dependence unit. (Count)
system.cpu0.MemDepUnit__0.insertedStores       703944                       # Number of stores inserted to the mem dependence unit. (Count)
system.cpu0.MemDepUnit__0.conflictingLoads       526907                       # Number of conflicting loads. (Count)
system.cpu0.MemDepUnit__0.conflictingStores       144979                       # Number of conflicting stores. (Count)
system.cpu0.MemDepUnit__1.insertedLoads             0                       # Number of loads inserted to the mem dependence unit. (Count)
system.cpu0.MemDepUnit__1.insertedStores            0                       # Number of stores inserted to the mem dependence unit. (Count)
system.cpu0.MemDepUnit__1.conflictingLoads            0                       # Number of conflicting loads. (Count)
system.cpu0.MemDepUnit__1.conflictingStores            0                       # Number of conflicting stores. (Count)
system.cpu0.MemDepUnit__2.insertedLoads             0                       # Number of loads inserted to the mem dependence unit. (Count)
system.cpu0.MemDepUnit__2.insertedStores            0                       # Number of stores inserted to the mem dependence unit. (Count)
system.cpu0.MemDepUnit__2.conflictingLoads            0                       # Number of conflicting loads. (Count)
system.cpu0.MemDepUnit__2.conflictingStores            0                       # Number of conflicting stores. (Count)
system.cpu0.MemDepUnit__3.insertedLoads             0                       # Number of loads inserted to the mem dependence unit. (Count)
system.cpu0.MemDepUnit__3.insertedStores            0                       # Number of stores inserted to the mem dependence unit. (Count)
system.cpu0.MemDepUnit__3.conflictingLoads            0                       # Number of conflicting loads. (Count)
system.cpu0.MemDepUnit__3.conflictingStores            0                       # Number of conflicting stores. (Count)
system.cpu0.branchPred.lookups_0::NoBranch          639      0.08%      0.08% # Number of BP lookups (Count)
system.cpu0.branchPred.lookups_0::Return        37206      4.71%      4.79% # Number of BP lookups (Count)
system.cpu0.branchPred.lookups_0::CallDirect        41092      5.21%     10.00% # Number of BP lookups (Count)
system.cpu0.branchPred.lookups_0::CallIndirect         1066      0.14%     10.13% # Number of BP lookups (Count)
system.cpu0.branchPred.lookups_0::DirectCond       587528     74.43%     84.56% # Number of BP lookups (Count)
system.cpu0.branchPred.lookups_0::DirectUncond        94255     11.94%     96.50% # Number of BP lookups (Count)
system.cpu0.branchPred.lookups_0::IndirectCond            0      0.00%     96.50% # Number of BP lookups (Count)
system.cpu0.branchPred.lookups_0::IndirectUncond        27600      3.50%    100.00% # Number of BP lookups (Count)
system.cpu0.branchPred.lookups_0::total        789386                       # Number of BP lookups (Count)
system.cpu0.branchPred.squashes_0::NoBranch          590      0.46%      0.46% # Number of branches that got squashed (completely removed) as an earlier branch was mispredicted. (Count)
system.cpu0.branchPred.squashes_0::Return         2780      2.17%      2.63% # Number of branches that got squashed (completely removed) as an earlier branch was mispredicted. (Count)
system.cpu0.branchPred.squashes_0::CallDirect         7082      5.52%      8.14% # Number of branches that got squashed (completely removed) as an earlier branch was mispredicted. (Count)
system.cpu0.branchPred.squashes_0::CallIndirect          645      0.50%      8.64% # Number of branches that got squashed (completely removed) as an earlier branch was mispredicted. (Count)
system.cpu0.branchPred.squashes_0::DirectCond       101902     79.38%     88.02% # Number of branches that got squashed (completely removed) as an earlier branch was mispredicted. (Count)
system.cpu0.branchPred.squashes_0::DirectUncond        13999     10.90%     98.93% # Number of branches that got squashed (completely removed) as an earlier branch was mispredicted. (Count)
system.cpu0.branchPred.squashes_0::IndirectCond            0      0.00%     98.93% # Number of branches that got squashed (completely removed) as an earlier branch was mispredicted. (Count)
system.cpu0.branchPred.squashes_0::IndirectUncond         1379      1.07%    100.00% # Number of branches that got squashed (completely removed) as an earlier branch was mispredicted. (Count)
system.cpu0.branchPred.squashes_0::total       128377                       # Number of branches that got squashed (completely removed) as an earlier branch was mispredicted. (Count)
system.cpu0.branchPred.corrected_0::NoBranch          119      0.82%      0.82% # Number of branches that got corrected but not yet commited. Branches get corrected by decode or after execute. Also a branch misprediction can be detected out-of-order. Therefore, a corrected branch might not end up beeing committed in case an even earlier branch was mispredicted (Count)
system.cpu0.branchPred.corrected_0::Return           12      0.08%      0.91% # Number of branches that got corrected but not yet commited. Branches get corrected by decode or after execute. Also a branch misprediction can be detected out-of-order. Therefore, a corrected branch might not end up beeing committed in case an even earlier branch was mispredicted (Count)
system.cpu0.branchPred.corrected_0::CallDirect          332      2.30%      3.20% # Number of branches that got corrected but not yet commited. Branches get corrected by decode or after execute. Also a branch misprediction can be detected out-of-order. Therefore, a corrected branch might not end up beeing committed in case an even earlier branch was mispredicted (Count)
system.cpu0.branchPred.corrected_0::CallIndirect          220      1.52%      4.73% # Number of branches that got corrected but not yet commited. Branches get corrected by decode or after execute. Also a branch misprediction can be detected out-of-order. Therefore, a corrected branch might not end up beeing committed in case an even earlier branch was mispredicted (Count)
system.cpu0.branchPred.corrected_0::DirectCond        13063     90.40%     95.13% # Number of branches that got corrected but not yet commited. Branches get corrected by decode or after execute. Also a branch misprediction can be detected out-of-order. Therefore, a corrected branch might not end up beeing committed in case an even earlier branch was mispredicted (Count)
system.cpu0.branchPred.corrected_0::DirectUncond          358      2.48%     97.61% # Number of branches that got corrected but not yet commited. Branches get corrected by decode or after execute. Also a branch misprediction can be detected out-of-order. Therefore, a corrected branch might not end up beeing committed in case an even earlier branch was mispredicted (Count)
system.cpu0.branchPred.corrected_0::IndirectCond            0      0.00%     97.61% # Number of branches that got corrected but not yet commited. Branches get corrected by decode or after execute. Also a branch misprediction can be detected out-of-order. Therefore, a corrected branch might not end up beeing committed in case an even earlier branch was mispredicted (Count)
system.cpu0.branchPred.corrected_0::IndirectUncond          346      2.39%    100.00% # Number of branches that got corrected but not yet commited. Branches get corrected by decode or after execute. Also a branch misprediction can be detected out-of-order. Therefore, a corrected branch might not end up beeing committed in case an even earlier branch was mispredicted (Count)
system.cpu0.branchPred.corrected_0::total        14450                       # Number of branches that got corrected but not yet commited. Branches get corrected by decode or after execute. Also a branch misprediction can be detected out-of-order. Therefore, a corrected branch might not end up beeing committed in case an even earlier branch was mispredicted (Count)
system.cpu0.branchPred.earlyResteers_0::NoBranch            0                       # Number of branches that got redirected after decode. (Count)
system.cpu0.branchPred.earlyResteers_0::Return            0                       # Number of branches that got redirected after decode. (Count)
system.cpu0.branchPred.earlyResteers_0::CallDirect            0                       # Number of branches that got redirected after decode. (Count)
system.cpu0.branchPred.earlyResteers_0::CallIndirect            0                       # Number of branches that got redirected after decode. (Count)
system.cpu0.branchPred.earlyResteers_0::DirectCond            0                       # Number of branches that got redirected after decode. (Count)
system.cpu0.branchPred.earlyResteers_0::DirectUncond            0                       # Number of branches that got redirected after decode. (Count)
system.cpu0.branchPred.earlyResteers_0::IndirectCond            0                       # Number of branches that got redirected after decode. (Count)
system.cpu0.branchPred.earlyResteers_0::IndirectUncond            0                       # Number of branches that got redirected after decode. (Count)
system.cpu0.branchPred.earlyResteers_0::total            0                       # Number of branches that got redirected after decode. (Count)
system.cpu0.branchPred.committed_0::NoBranch           49      0.01%      0.01% # Number of branches finally committed  (Count)
system.cpu0.branchPred.committed_0::Return        34426      5.21%      5.22% # Number of branches finally committed  (Count)
system.cpu0.branchPred.committed_0::CallDirect        34010      5.15%     10.36% # Number of branches finally committed  (Count)
system.cpu0.branchPred.committed_0::CallIndirect          421      0.06%     10.42% # Number of branches finally committed  (Count)
system.cpu0.branchPred.committed_0::DirectCond       485626     73.47%     83.89% # Number of branches finally committed  (Count)
system.cpu0.branchPred.committed_0::DirectUncond        80256     12.14%     96.03% # Number of branches finally committed  (Count)
system.cpu0.branchPred.committed_0::IndirectCond            0      0.00%     96.03% # Number of branches finally committed  (Count)
system.cpu0.branchPred.committed_0::IndirectUncond        26221      3.97%    100.00% # Number of branches finally committed  (Count)
system.cpu0.branchPred.committed_0::total       661009                       # Number of branches finally committed  (Count)
system.cpu0.branchPred.mispredicted_0::NoBranch           49      0.36%      0.36% # Number of committed branches that were mispredicted. (Count)
system.cpu0.branchPred.mispredicted_0::Return            0      0.00%      0.36% # Number of committed branches that were mispredicted. (Count)
system.cpu0.branchPred.mispredicted_0::CallDirect          173      1.28%      1.65% # Number of committed branches that were mispredicted. (Count)
system.cpu0.branchPred.mispredicted_0::CallIndirect          191      1.42%      3.06% # Number of committed branches that were mispredicted. (Count)
system.cpu0.branchPred.mispredicted_0::DirectCond        12556     93.08%     96.15% # Number of committed branches that were mispredicted. (Count)
system.cpu0.branchPred.mispredicted_0::DirectUncond          197      1.46%     97.61% # Number of committed branches that were mispredicted. (Count)
system.cpu0.branchPred.mispredicted_0::IndirectCond            0      0.00%     97.61% # Number of committed branches that were mispredicted. (Count)
system.cpu0.branchPred.mispredicted_0::IndirectUncond          323      2.39%    100.00% # Number of committed branches that were mispredicted. (Count)
system.cpu0.branchPred.mispredicted_0::total        13489                       # Number of committed branches that were mispredicted. (Count)
system.cpu0.branchPred.targetProvider_0::NoTarget       347397     44.01%     44.01% # The component providing the target for taken branches (Count)
system.cpu0.branchPred.targetProvider_0::BTB       377915     47.87%     91.88% # The component providing the target for taken branches (Count)
system.cpu0.branchPred.targetProvider_0::RAS        37206      4.71%     96.60% # The component providing the target for taken branches (Count)
system.cpu0.branchPred.targetProvider_0::Indirect        26868      3.40%    100.00% # The component providing the target for taken branches (Count)
system.cpu0.branchPred.targetProvider_0::total       789386                       # The component providing the target for taken branches (Count)
system.cpu0.branchPred.targetWrong_0::NoBranch         8173     62.91%     62.91% # Number of branches where the target was incorrect or not available at prediction time. (Count)
system.cpu0.branchPred.targetWrong_0::Return         4765     36.68%     99.58% # Number of branches where the target was incorrect or not available at prediction time. (Count)
system.cpu0.branchPred.targetWrong_0::CallDirect           12      0.09%     99.68% # Number of branches where the target was incorrect or not available at prediction time. (Count)
system.cpu0.branchPred.targetWrong_0::CallIndirect           42      0.32%    100.00% # Number of branches where the target was incorrect or not available at prediction time. (Count)
system.cpu0.branchPred.targetWrong_0::DirectCond            0      0.00%    100.00% # Number of branches where the target was incorrect or not available at prediction time. (Count)
system.cpu0.branchPred.targetWrong_0::DirectUncond            0      0.00%    100.00% # Number of branches where the target was incorrect or not available at prediction time. (Count)
system.cpu0.branchPred.targetWrong_0::IndirectCond            0      0.00%    100.00% # Number of branches where the target was incorrect or not available at prediction time. (Count)
system.cpu0.branchPred.targetWrong_0::IndirectUncond            0      0.00%    100.00% # Number of branches where the target was incorrect or not available at prediction time. (Count)
system.cpu0.branchPred.targetWrong_0::total        12992                       # Number of branches where the target was incorrect or not available at prediction time. (Count)
system.cpu0.branchPred.condPredicted           588167                       # Number of conditional branches predicted (Count)
system.cpu0.branchPred.condPredictedTaken       245146                       # Number of conditional branches predicted as taken (Count)
system.cpu0.branchPred.condIncorrect            14450                       # Number of conditional branches incorrect (Count)
system.cpu0.branchPred.predTakenBTBMiss           894                       # Number of branches predicted taken but missed in BTB (Count)
system.cpu0.branchPred.NotTakenMispredicted         9103                       # Number branches predicted 'not taken' but turned out to be taken (Count)
system.cpu0.branchPred.TakenMispredicted         5347                       # Number branches predicted taken but are actually not taken (Count)
system.cpu0.branchPred.BTBLookups              789386                       # Number of BTB lookups (Count)
system.cpu0.branchPred.BTBUpdates                8406                       # Number of BTB updates (Count)
system.cpu0.branchPred.BTBHits                 522709                       # Number of BTB hits (Count)
system.cpu0.branchPred.BTBHitRatio           0.662172                       # BTB Hit Ratio (Ratio)
system.cpu0.branchPred.BTBMispredicted           1508                       # Number BTB mispredictions. No target found or target wrong (Count)
system.cpu0.branchPred.indirectLookups          28666                       # Number of indirect predictor lookups. (Count)
system.cpu0.branchPred.indirectHits             26868                       # Number of indirect target hits. (Count)
system.cpu0.branchPred.indirectMisses            1798                       # Number of indirect misses. (Count)
system.cpu0.branchPred.indirectMispredicted            0                       # Number of mispredicted indirect branches. (Count)
system.cpu0.branchPred.btb.lookups::NoBranch          639      0.08%      0.08% # Number of BTB lookups (Count)
system.cpu0.branchPred.btb.lookups::Return        37206      4.71%      4.79% # Number of BTB lookups (Count)
system.cpu0.branchPred.btb.lookups::CallDirect        41092      5.21%     10.00% # Number of BTB lookups (Count)
system.cpu0.branchPred.btb.lookups::CallIndirect         1066      0.14%     10.13% # Number of BTB lookups (Count)
system.cpu0.branchPred.btb.lookups::DirectCond       587528     74.43%     84.56% # Number of BTB lookups (Count)
system.cpu0.branchPred.btb.lookups::DirectUncond        94255     11.94%     96.50% # Number of BTB lookups (Count)
system.cpu0.branchPred.btb.lookups::IndirectCond            0      0.00%     96.50% # Number of BTB lookups (Count)
system.cpu0.branchPred.btb.lookups::IndirectUncond        27600      3.50%    100.00% # Number of BTB lookups (Count)
system.cpu0.branchPred.btb.lookups::total       789386                       # Number of BTB lookups (Count)
system.cpu0.branchPred.btb.misses::NoBranch          198      0.07%      0.07% # Number of BTB misses (Count)
system.cpu0.branchPred.btb.misses::Return        37206     13.95%     14.03% # Number of BTB misses (Count)
system.cpu0.branchPred.btb.misses::CallDirect          523      0.20%     14.22% # Number of BTB misses (Count)
system.cpu0.branchPred.btb.misses::CallIndirect         1066      0.40%     14.62% # Number of BTB misses (Count)
system.cpu0.branchPred.btb.misses::DirectCond       199611     74.85%     89.47% # Number of BTB misses (Count)
system.cpu0.branchPred.btb.misses::DirectUncond          473      0.18%     89.65% # Number of BTB misses (Count)
system.cpu0.branchPred.btb.misses::IndirectCond            0      0.00%     89.65% # Number of BTB misses (Count)
system.cpu0.branchPred.btb.misses::IndirectUncond        27600     10.35%    100.00% # Number of BTB misses (Count)
system.cpu0.branchPred.btb.misses::total       266677                       # Number of BTB misses (Count)
system.cpu0.branchPred.btb.updates::NoBranch            0      0.00%      0.00% # Number of BTB updates (Count)
system.cpu0.branchPred.btb.updates::Return            0      0.00%      0.00% # Number of BTB updates (Count)
system.cpu0.branchPred.btb.updates::CallDirect          332      3.95%      3.95% # Number of BTB updates (Count)
system.cpu0.branchPred.btb.updates::CallIndirect            0      0.00%      3.95% # Number of BTB updates (Count)
system.cpu0.branchPred.btb.updates::DirectCond         7716     91.79%     95.74% # Number of BTB updates (Count)
system.cpu0.branchPred.btb.updates::DirectUncond          358      4.26%    100.00% # Number of BTB updates (Count)
system.cpu0.branchPred.btb.updates::IndirectCond            0      0.00%    100.00% # Number of BTB updates (Count)
system.cpu0.branchPred.btb.updates::IndirectUncond            0      0.00%    100.00% # Number of BTB updates (Count)
system.cpu0.branchPred.btb.updates::total         8406                       # Number of BTB updates (Count)
system.cpu0.branchPred.btb.mispredict::NoBranch            0      0.00%      0.00% # Number of BTB mispredictions. No target found or target wrong. (Count)
system.cpu0.branchPred.btb.mispredict::Return            0      0.00%      0.00% # Number of BTB mispredictions. No target found or target wrong. (Count)
system.cpu0.branchPred.btb.mispredict::CallDirect          332      3.95%      3.95% # Number of BTB mispredictions. No target found or target wrong. (Count)
system.cpu0.branchPred.btb.mispredict::CallIndirect            0      0.00%      3.95% # Number of BTB mispredictions. No target found or target wrong. (Count)
system.cpu0.branchPred.btb.mispredict::DirectCond         7716     91.79%     95.74% # Number of BTB mispredictions. No target found or target wrong. (Count)
system.cpu0.branchPred.btb.mispredict::DirectUncond          358      4.26%    100.00% # Number of BTB mispredictions. No target found or target wrong. (Count)
system.cpu0.branchPred.btb.mispredict::IndirectCond            0      0.00%    100.00% # Number of BTB mispredictions. No target found or target wrong. (Count)
system.cpu0.branchPred.btb.mispredict::IndirectUncond            0      0.00%    100.00% # Number of BTB mispredictions. No target found or target wrong. (Count)
system.cpu0.branchPred.btb.mispredict::total         8406                       # Number of BTB mispredictions. No target found or target wrong. (Count)
system.cpu0.branchPred.btb.power_state.pwrStateResidencyTicks::UNDEFINED   2222407500                       # Cumulative time (in ticks) in various power states (Tick)
system.cpu0.branchPred.indirectBranchPred.lookups        28666                       # Number of lookups (Count)
system.cpu0.branchPred.indirectBranchPred.hits        26868                       # Number of hits of a tag (Count)
system.cpu0.branchPred.indirectBranchPred.misses         1798                       # Number of misses (Count)
system.cpu0.branchPred.indirectBranchPred.targetRecords          566                       # Number of targets that where recorded/installed in the cache (Count)
system.cpu0.branchPred.indirectBranchPred.indirectRecords        29232                       # Number of indirect branches/calls recorded in the indirect hist (Count)
system.cpu0.branchPred.indirectBranchPred.speculativeOverflows            1                       # Number of times more than the allowed capacity for speculative branches/calls where in flight and destroy the path history (Count)
system.cpu0.branchPred.ras.pushes               44938                       # Number of times a PC was pushed onto the RAS (Count)
system.cpu0.branchPred.ras.pops                 44933                       # Number of times a PC was poped from the RAS (Count)
system.cpu0.branchPred.ras.squashes             10507                       # Number of times the stack operation was squashed due to wrong speculation. (Count)
system.cpu0.branchPred.ras.used                 34426                       # Number of times the RAS is the provider (Count)
system.cpu0.branchPred.ras.correct              34426                       # Number of times the RAS is the provider and the prediction is correct (Count)
system.cpu0.branchPred.ras.incorrect                0                       # Number of times the RAS is the provider and the prediction is wrong (Count)
system.cpu0.commit.commitSquashedInsts        1092789                       # The number of squashed insts skipped by commit (Count)
system.cpu0.commit.commitNonSpecStalls            270                       # The number of times commit has been forced to stall to communicate backwards (Count)
system.cpu0.commit.branchMispredicts            14019                       # The number of times a branch was mispredicted (Count)
system.cpu0.commit.numCommittedDist::samples      4056067                       # Number of insts commited each cycle (Count)
system.cpu0.commit.numCommittedDist::mean     2.485706                       # Number of insts commited each cycle (Count)
system.cpu0.commit.numCommittedDist::stdev     3.038077                       # Number of insts commited each cycle (Count)
system.cpu0.commit.numCommittedDist::underflows            0      0.00%      0.00% # Number of insts commited each cycle (Count)
system.cpu0.commit.numCommittedDist::0        1674397     41.28%     41.28% # Number of insts commited each cycle (Count)
system.cpu0.commit.numCommittedDist::1         703679     17.35%     58.63% # Number of insts commited each cycle (Count)
system.cpu0.commit.numCommittedDist::2         194156      4.79%     63.42% # Number of insts commited each cycle (Count)
system.cpu0.commit.numCommittedDist::3         311662      7.68%     71.10% # Number of insts commited each cycle (Count)
system.cpu0.commit.numCommittedDist::4         151291      3.73%     74.83% # Number of insts commited each cycle (Count)
system.cpu0.commit.numCommittedDist::5         180405      4.45%     79.28% # Number of insts commited each cycle (Count)
system.cpu0.commit.numCommittedDist::6          64396      1.59%     80.87% # Number of insts commited each cycle (Count)
system.cpu0.commit.numCommittedDist::7          47000      1.16%     82.02% # Number of insts commited each cycle (Count)
system.cpu0.commit.numCommittedDist::8         729081     17.98%    100.00% # Number of insts commited each cycle (Count)
system.cpu0.commit.numCommittedDist::overflows            0      0.00%    100.00% # Number of insts commited each cycle (Count)
system.cpu0.commit.numCommittedDist::min_value            0                       # Number of insts commited each cycle (Count)
system.cpu0.commit.numCommittedDist::max_value            8                       # Number of insts commited each cycle (Count)
system.cpu0.commit.numCommittedDist::total      4056067                       # Number of insts commited each cycle (Count)
system.cpu0.commit.amos                             0                       # Number of atomic instructions committed (Count)
system.cpu0.commit.membars                        120                       # Number of memory barriers committed (Count)
system.cpu0.commit.functionCalls                34431                       # Number of function calls committed. (Count)
system.cpu0.commit.committedInstType_0::No_OpClass        33461      0.33%      0.33% # Class of committed instruction (Count)
system.cpu0.commit.committedInstType_0::IntAlu      5717049     56.70%     57.04% # Class of committed instruction (Count)
system.cpu0.commit.committedInstType_0::IntMult         4124      0.04%     57.08% # Class of committed instruction (Count)
system.cpu0.commit.committedInstType_0::IntDiv        34738      0.34%     57.42% # Class of committed instruction (Count)
system.cpu0.commit.committedInstType_0::FloatAdd       778219      7.72%     65.14% # Class of committed instruction (Count)
system.cpu0.commit.committedInstType_0::FloatCmp            0      0.00%     65.14% # Class of committed instruction (Count)
system.cpu0.commit.committedInstType_0::FloatCvt          160      0.00%     65.14% # Class of committed instruction (Count)
system.cpu0.commit.committedInstType_0::FloatMult            0      0.00%     65.14% # Class of committed instruction (Count)
system.cpu0.commit.committedInstType_0::FloatMultAcc            0      0.00%     65.14% # Class of committed instruction (Count)
system.cpu0.commit.committedInstType_0::FloatDiv            0      0.00%     65.14% # Class of committed instruction (Count)
system.cpu0.commit.committedInstType_0::FloatMisc            0      0.00%     65.14% # Class of committed instruction (Count)
system.cpu0.commit.committedInstType_0::FloatSqrt            0      0.00%     65.14% # Class of committed instruction (Count)
system.cpu0.commit.committedInstType_0::SimdAdd         5394      0.05%     65.20% # Class of committed instruction (Count)
system.cpu0.commit.committedInstType_0::SimdAddAcc            0      0.00%     65.20% # Class of committed instruction (Count)
system.cpu0.commit.committedInstType_0::SimdAlu       309807      3.07%     68.27% # Class of committed instruction (Count)
system.cpu0.commit.committedInstType_0::SimdCmp            0      0.00%     68.27% # Class of committed instruction (Count)
system.cpu0.commit.committedInstType_0::SimdCvt        11058      0.11%     68.38% # Class of committed instruction (Count)
system.cpu0.commit.committedInstType_0::SimdMisc        64564      0.64%     69.02% # Class of committed instruction (Count)
system.cpu0.commit.committedInstType_0::SimdMult            0      0.00%     69.02% # Class of committed instruction (Count)
system.cpu0.commit.committedInstType_0::SimdMultAcc            0      0.00%     69.02% # Class of committed instruction (Count)
system.cpu0.commit.committedInstType_0::SimdMatMultAcc            0      0.00%     69.02% # Class of committed instruction (Count)
system.cpu0.commit.committedInstType_0::SimdShift          670      0.01%     69.03% # Class of committed instruction (Count)
system.cpu0.commit.committedInstType_0::SimdShiftAcc            0      0.00%     69.03% # Class of committed instruction (Count)
system.cpu0.commit.committedInstType_0::SimdDiv            0      0.00%     69.03% # Class of committed instruction (Count)
system.cpu0.commit.committedInstType_0::SimdSqrt            0      0.00%     69.03% # Class of committed instruction (Count)
system.cpu0.commit.committedInstType_0::SimdFloatAdd       349405      3.47%     72.49% # Class of committed instruction (Count)
system.cpu0.commit.committedInstType_0::SimdFloatAlu            0      0.00%     72.49% # Class of committed instruction (Count)
system.cpu0.commit.committedInstType_0::SimdFloatCmp            0      0.00%     72.49% # Class of committed instruction (Count)
system.cpu0.commit.committedInstType_0::SimdFloatCvt        95359      0.95%     73.44% # Class of committed instruction (Count)
system.cpu0.commit.committedInstType_0::SimdFloatDiv        22528      0.22%     73.66% # Class of committed instruction (Count)
system.cpu0.commit.committedInstType_0::SimdFloatMisc            0      0.00%     73.66% # Class of committed instruction (Count)
system.cpu0.commit.committedInstType_0::SimdFloatMult       319220      3.17%     76.83% # Class of committed instruction (Count)
system.cpu0.commit.committedInstType_0::SimdFloatMultAcc            0      0.00%     76.83% # Class of committed instruction (Count)
system.cpu0.commit.committedInstType_0::SimdFloatMatMultAcc            0      0.00%     76.83% # Class of committed instruction (Count)
system.cpu0.commit.committedInstType_0::SimdFloatSqrt            0      0.00%     76.83% # Class of committed instruction (Count)
system.cpu0.commit.committedInstType_0::SimdReduceAdd            0      0.00%     76.83% # Class of committed instruction (Count)
system.cpu0.commit.committedInstType_0::SimdReduceAlu            0      0.00%     76.83% # Class of committed instruction (Count)
system.cpu0.commit.committedInstType_0::SimdReduceCmp            0      0.00%     76.83% # Class of committed instruction (Count)
system.cpu0.commit.committedInstType_0::SimdFloatReduceAdd            0      0.00%     76.83% # Class of committed instruction (Count)
system.cpu0.commit.committedInstType_0::SimdFloatReduceCmp            0      0.00%     76.83% # Class of committed instruction (Count)
system.cpu0.commit.committedInstType_0::SimdAes            0      0.00%     76.83% # Class of committed instruction (Count)
system.cpu0.commit.committedInstType_0::SimdAesMix            0      0.00%     76.83% # Class of committed instruction (Count)
system.cpu0.commit.committedInstType_0::SimdSha1Hash            0      0.00%     76.83% # Class of committed instruction (Count)
system.cpu0.commit.committedInstType_0::SimdSha1Hash2            0      0.00%     76.83% # Class of committed instruction (Count)
system.cpu0.commit.committedInstType_0::SimdSha256Hash            0      0.00%     76.83% # Class of committed instruction (Count)
system.cpu0.commit.committedInstType_0::SimdSha256Hash2            0      0.00%     76.83% # Class of committed instruction (Count)
system.cpu0.commit.committedInstType_0::SimdShaSigma2            0      0.00%     76.83% # Class of committed instruction (Count)
system.cpu0.commit.committedInstType_0::SimdShaSigma3            0      0.00%     76.83% # Class of committed instruction (Count)
system.cpu0.commit.committedInstType_0::SimdPredAlu            0      0.00%     76.83% # Class of committed instruction (Count)
system.cpu0.commit.committedInstType_0::Matrix            0      0.00%     76.83% # Class of committed instruction (Count)
system.cpu0.commit.committedInstType_0::MatrixMov            0      0.00%     76.83% # Class of committed instruction (Count)
system.cpu0.commit.committedInstType_0::MatrixOP            0      0.00%     76.83% # Class of committed instruction (Count)
system.cpu0.commit.committedInstType_0::MemRead      1034411     10.26%     87.09% # Class of committed instruction (Count)
system.cpu0.commit.committedInstType_0::MemWrite       471045      4.67%     91.76% # Class of committed instruction (Count)
system.cpu0.commit.committedInstType_0::FloatMemRead       667732      6.62%     98.38% # Class of committed instruction (Count)
system.cpu0.commit.committedInstType_0::FloatMemWrite       163246      1.62%    100.00% # Class of committed instruction (Count)
system.cpu0.commit.committedInstType_0::IprAccess            0      0.00%    100.00% # Class of committed instruction (Count)
system.cpu0.commit.committedInstType_0::InstPrefetch            0      0.00%    100.00% # Class of committed instruction (Count)
system.cpu0.commit.committedInstType_0::VectorUnitStrideLoad            0      0.00%    100.00% # Class of committed instruction (Count)
system.cpu0.commit.committedInstType_0::VectorUnitStrideStore            0      0.00%    100.00% # Class of committed instruction (Count)
system.cpu0.commit.committedInstType_0::VectorUnitStrideMaskLoad            0      0.00%    100.00% # Class of committed instruction (Count)
system.cpu0.commit.committedInstType_0::VectorUnitStrideMaskStore            0      0.00%    100.00% # Class of committed instruction (Count)
system.cpu0.commit.committedInstType_0::VectorStridedLoad            0      0.00%    100.00% # Class of committed instruction (Count)
system.cpu0.commit.committedInstType_0::VectorStridedStore            0      0.00%    100.00% # Class of committed instruction (Count)
system.cpu0.commit.committedInstType_0::VectorIndexedLoad            0      0.00%    100.00% # Class of committed instruction (Count)
system.cpu0.commit.committedInstType_0::VectorIndexedStore            0      0.00%    100.00% # Class of committed instruction (Count)
system.cpu0.commit.committedInstType_0::VectorUnitStrideFaultOnlyFirstLoad            0      0.00%    100.00% # Class of committed instruction (Count)
system.cpu0.commit.committedInstType_0::VectorWholeRegisterLoad            0      0.00%    100.00% # Class of committed instruction (Count)
system.cpu0.commit.committedInstType_0::VectorWholeRegisterStore            0      0.00%    100.00% # Class of committed instruction (Count)
system.cpu0.commit.committedInstType_0::VectorIntegerArith            0      0.00%    100.00% # Class of committed instruction (Count)
system.cpu0.commit.committedInstType_0::VectorFloatArith            0      0.00%    100.00% # Class of committed instruction (Count)
system.cpu0.commit.committedInstType_0::VectorFloatConvert            0      0.00%    100.00% # Class of committed instruction (Count)
system.cpu0.commit.committedInstType_0::VectorIntegerReduce            0      0.00%    100.00% # Class of committed instruction (Count)
system.cpu0.commit.committedInstType_0::VectorFloatReduce            0      0.00%    100.00% # Class of committed instruction (Count)
system.cpu0.commit.committedInstType_0::VectorMisc            0      0.00%    100.00% # Class of committed instruction (Count)
system.cpu0.commit.committedInstType_0::VectorIntegerExtension            0      0.00%    100.00% # Class of committed instruction (Count)
system.cpu0.commit.committedInstType_0::VectorConfig            0      0.00%    100.00% # Class of committed instruction (Count)
system.cpu0.commit.committedInstType_0::total     10082190                       # Class of committed instruction (Count)
system.cpu0.commit.commitEligibleSamples       729081                       # number cycles where commit BW limit reached (Cycle)
system.cpu0.commitStats0.numInsts             5771290                       # Number of instructions committed (thread level) (Count)
system.cpu0.commitStats0.numOps              10082190                       # Number of ops (including micro ops) committed (thread level) (Count)
system.cpu0.commitStats0.numInstsNotNOP       5771290                       # Number of instructions committed excluding NOPs or prefetches (Count)
system.cpu0.commitStats0.numOpsNotNOP        10082190                       # Number of Ops (including micro ops) Simulated (Count)
system.cpu0.commitStats0.cpi                 0.755767                       # CPI: cycles per instruction (thread level) ((Cycle/Count))
system.cpu0.commitStats0.ipc                 1.323159                       # IPC: instructions per cycle (thread level) ((Count/Cycle))
system.cpu0.commitStats0.numMemRefs           2336434                       # Number of memory references committed (Count)
system.cpu0.commitStats0.numFpInsts           3097087                       # Number of float instructions (Count)
system.cpu0.commitStats0.numIntInsts          7836825                       # Number of integer instructions (Count)
system.cpu0.commitStats0.numLoadInsts         1702143                       # Number of load instructions (Count)
system.cpu0.commitStats0.numStoreInsts         634291                       # Number of store instructions (Count)
system.cpu0.commitStats0.numVecInsts                0                       # Number of vector instructions (Count)
system.cpu0.commitStats0.committedInstType::No_OpClass        33461      0.33%      0.33% # Class of committed instruction. (Count)
system.cpu0.commitStats0.committedInstType::IntAlu      5717049     56.70%     57.04% # Class of committed instruction. (Count)
system.cpu0.commitStats0.committedInstType::IntMult         4124      0.04%     57.08% # Class of committed instruction. (Count)
system.cpu0.commitStats0.committedInstType::IntDiv        34738      0.34%     57.42% # Class of committed instruction. (Count)
system.cpu0.commitStats0.committedInstType::FloatAdd       778219      7.72%     65.14% # Class of committed instruction. (Count)
system.cpu0.commitStats0.committedInstType::FloatCmp            0      0.00%     65.14% # Class of committed instruction. (Count)
system.cpu0.commitStats0.committedInstType::FloatCvt          160      0.00%     65.14% # Class of committed instruction. (Count)
system.cpu0.commitStats0.committedInstType::FloatMult            0      0.00%     65.14% # Class of committed instruction. (Count)
system.cpu0.commitStats0.committedInstType::FloatMultAcc            0      0.00%     65.14% # Class of committed instruction. (Count)
system.cpu0.commitStats0.committedInstType::FloatDiv            0      0.00%     65.14% # Class of committed instruction. (Count)
system.cpu0.commitStats0.committedInstType::FloatMisc            0      0.00%     65.14% # Class of committed instruction. (Count)
system.cpu0.commitStats0.committedInstType::FloatSqrt            0      0.00%     65.14% # Class of committed instruction. (Count)
system.cpu0.commitStats0.committedInstType::SimdAdd         5394      0.05%     65.20% # Class of committed instruction. (Count)
system.cpu0.commitStats0.committedInstType::SimdAddAcc            0      0.00%     65.20% # Class of committed instruction. (Count)
system.cpu0.commitStats0.committedInstType::SimdAlu       309807      3.07%     68.27% # Class of committed instruction. (Count)
system.cpu0.commitStats0.committedInstType::SimdCmp            0      0.00%     68.27% # Class of committed instruction. (Count)
system.cpu0.commitStats0.committedInstType::SimdCvt        11058      0.11%     68.38% # Class of committed instruction. (Count)
system.cpu0.commitStats0.committedInstType::SimdMisc        64564      0.64%     69.02% # Class of committed instruction. (Count)
system.cpu0.commitStats0.committedInstType::SimdMult            0      0.00%     69.02% # Class of committed instruction. (Count)
system.cpu0.commitStats0.committedInstType::SimdMultAcc            0      0.00%     69.02% # Class of committed instruction. (Count)
system.cpu0.commitStats0.committedInstType::SimdMatMultAcc            0      0.00%     69.02% # Class of committed instruction. (Count)
system.cpu0.commitStats0.committedInstType::SimdShift          670      0.01%     69.03% # Class of committed instruction. (Count)
system.cpu0.commitStats0.committedInstType::SimdShiftAcc            0      0.00%     69.03% # Class of committed instruction. (Count)
system.cpu0.commitStats0.committedInstType::SimdDiv            0      0.00%     69.03% # Class of committed instruction. (Count)
system.cpu0.commitStats0.committedInstType::SimdSqrt            0      0.00%     69.03% # Class of committed instruction. (Count)
system.cpu0.commitStats0.committedInstType::SimdFloatAdd       349405      3.47%     72.49% # Class of committed instruction. (Count)
system.cpu0.commitStats0.committedInstType::SimdFloatAlu            0      0.00%     72.49% # Class of committed instruction. (Count)
system.cpu0.commitStats0.committedInstType::SimdFloatCmp            0      0.00%     72.49% # Class of committed instruction. (Count)
system.cpu0.commitStats0.committedInstType::SimdFloatCvt        95359      0.95%     73.44% # Class of committed instruction. (Count)
system.cpu0.commitStats0.committedInstType::SimdFloatDiv        22528      0.22%     73.66% # Class of committed instruction. (Count)
system.cpu0.commitStats0.committedInstType::SimdFloatMisc            0      0.00%     73.66% # Class of committed instruction. (Count)
system.cpu0.commitStats0.committedInstType::SimdFloatMult       319220      3.17%     76.83% # Class of committed instruction. (Count)
system.cpu0.commitStats0.committedInstType::SimdFloatMultAcc            0      0.00%     76.83% # Class of committed instruction. (Count)
system.cpu0.commitStats0.committedInstType::SimdFloatMatMultAcc            0      0.00%     76.83% # Class of committed instruction. (Count)
system.cpu0.commitStats0.committedInstType::SimdFloatSqrt            0      0.00%     76.83% # Class of committed instruction. (Count)
system.cpu0.commitStats0.committedInstType::SimdReduceAdd            0      0.00%     76.83% # Class of committed instruction. (Count)
system.cpu0.commitStats0.committedInstType::SimdReduceAlu            0      0.00%     76.83% # Class of committed instruction. (Count)
system.cpu0.commitStats0.committedInstType::SimdReduceCmp            0      0.00%     76.83% # Class of committed instruction. (Count)
system.cpu0.commitStats0.committedInstType::SimdFloatReduceAdd            0      0.00%     76.83% # Class of committed instruction. (Count)
system.cpu0.commitStats0.committedInstType::SimdFloatReduceCmp            0      0.00%     76.83% # Class of committed instruction. (Count)
system.cpu0.commitStats0.committedInstType::SimdAes            0      0.00%     76.83% # Class of committed instruction. (Count)
system.cpu0.commitStats0.committedInstType::SimdAesMix            0      0.00%     76.83% # Class of committed instruction. (Count)
system.cpu0.commitStats0.committedInstType::SimdSha1Hash            0      0.00%     76.83% # Class of committed instruction. (Count)
system.cpu0.commitStats0.committedInstType::SimdSha1Hash2            0      0.00%     76.83% # Class of committed instruction. (Count)
system.cpu0.commitStats0.committedInstType::SimdSha256Hash            0      0.00%     76.83% # Class of committed instruction. (Count)
system.cpu0.commitStats0.committedInstType::SimdSha256Hash2            0      0.00%     76.83% # Class of committed instruction. (Count)
system.cpu0.commitStats0.committedInstType::SimdShaSigma2            0      0.00%     76.83% # Class of committed instruction. (Count)
system.cpu0.commitStats0.committedInstType::SimdShaSigma3            0      0.00%     76.83% # Class of committed instruction. (Count)
system.cpu0.commitStats0.committedInstType::SimdPredAlu            0      0.00%     76.83% # Class of committed instruction. (Count)
system.cpu0.commitStats0.committedInstType::Matrix            0      0.00%     76.83% # Class of committed instruction. (Count)
system.cpu0.commitStats0.committedInstType::MatrixMov            0      0.00%     76.83% # Class of committed instruction. (Count)
system.cpu0.commitStats0.committedInstType::MatrixOP            0      0.00%     76.83% # Class of committed instruction. (Count)
system.cpu0.commitStats0.committedInstType::MemRead      1034411     10.26%     87.09% # Class of committed instruction. (Count)
system.cpu0.commitStats0.committedInstType::MemWrite       471045      4.67%     91.76% # Class of committed instruction. (Count)
system.cpu0.commitStats0.committedInstType::FloatMemRead       667732      6.62%     98.38% # Class of committed instruction. (Count)
system.cpu0.commitStats0.committedInstType::FloatMemWrite       163246      1.62%    100.00% # Class of committed instruction. (Count)
system.cpu0.commitStats0.committedInstType::IprAccess            0      0.00%    100.00% # Class of committed instruction. (Count)
system.cpu0.commitStats0.committedInstType::InstPrefetch            0      0.00%    100.00% # Class of committed instruction. (Count)
system.cpu0.commitStats0.committedInstType::VectorUnitStrideLoad            0      0.00%    100.00% # Class of committed instruction. (Count)
system.cpu0.commitStats0.committedInstType::VectorUnitStrideStore            0      0.00%    100.00% # Class of committed instruction. (Count)
system.cpu0.commitStats0.committedInstType::VectorUnitStrideMaskLoad            0      0.00%    100.00% # Class of committed instruction. (Count)
system.cpu0.commitStats0.committedInstType::VectorUnitStrideMaskStore            0      0.00%    100.00% # Class of committed instruction. (Count)
system.cpu0.commitStats0.committedInstType::VectorStridedLoad            0      0.00%    100.00% # Class of committed instruction. (Count)
system.cpu0.commitStats0.committedInstType::VectorStridedStore            0      0.00%    100.00% # Class of committed instruction. (Count)
system.cpu0.commitStats0.committedInstType::VectorIndexedLoad            0      0.00%    100.00% # Class of committed instruction. (Count)
system.cpu0.commitStats0.committedInstType::VectorIndexedStore            0      0.00%    100.00% # Class of committed instruction. (Count)
system.cpu0.commitStats0.committedInstType::VectorUnitStrideFaultOnlyFirstLoad            0      0.00%    100.00% # Class of committed instruction. (Count)
system.cpu0.commitStats0.committedInstType::VectorWholeRegisterLoad            0      0.00%    100.00% # Class of committed instruction. (Count)
system.cpu0.commitStats0.committedInstType::VectorWholeRegisterStore            0      0.00%    100.00% # Class of committed instruction. (Count)
system.cpu0.commitStats0.committedInstType::VectorIntegerArith            0      0.00%    100.00% # Class of committed instruction. (Count)
system.cpu0.commitStats0.committedInstType::VectorFloatArith            0      0.00%    100.00% # Class of committed instruction. (Count)
system.cpu0.commitStats0.committedInstType::VectorFloatConvert            0      0.00%    100.00% # Class of committed instruction. (Count)
system.cpu0.commitStats0.committedInstType::VectorIntegerReduce            0      0.00%    100.00% # Class of committed instruction. (Count)
system.cpu0.commitStats0.committedInstType::VectorFloatReduce            0      0.00%    100.00% # Class of committed instruction. (Count)
system.cpu0.commitStats0.committedInstType::VectorMisc            0      0.00%    100.00% # Class of committed instruction. (Count)
system.cpu0.commitStats0.committedInstType::VectorIntegerExtension            0      0.00%    100.00% # Class of committed instruction. (Count)
system.cpu0.commitStats0.committedInstType::VectorConfig            0      0.00%    100.00% # Class of committed instruction. (Count)
system.cpu0.commitStats0.committedInstType::total     10082190                       # Class of committed instruction. (Count)
system.cpu0.commitStats0.committedControl::IsControl       661009                       # Class of control type instructions committed (Count)
system.cpu0.commitStats0.committedControl::IsDirectControl       599892                       # Class of control type instructions committed (Count)
system.cpu0.commitStats0.committedControl::IsIndirectControl        61068                       # Class of control type instructions committed (Count)
system.cpu0.commitStats0.committedControl::IsCondControl       485626                       # Class of control type instructions committed (Count)
system.cpu0.commitStats0.committedControl::IsUncondControl       175334                       # Class of control type instructions committed (Count)
system.cpu0.commitStats0.committedControl::IsCall        34431                       # Class of control type instructions committed (Count)
system.cpu0.commitStats0.committedControl::IsReturn        34426                       # Class of control type instructions committed (Count)
system.cpu0.decode.idleCycles                  677059                       # Number of cycles decode is idle (Cycle)
system.cpu0.decode.blockedCycles              1882714                       # Number of cycles decode is blocked (Cycle)
system.cpu0.decode.runCycles                  1300405                       # Number of cycles decode is running (Cycle)
system.cpu0.decode.unblockCycles               326886                       # Number of cycles decode is unblocking (Cycle)
system.cpu0.decode.squashCycles                 14725                       # Number of cycles decode is squashing (Cycle)
system.cpu0.decode.branchResolved              364290                       # Number of times decode resolved a branch (Count)
system.cpu0.decode.branchMispred                  767                       # Number of times decode detected a branch misprediction (Count)
system.cpu0.decode.decodedInsts              11372347                       # Number of instructions handled by decode (Count)
system.cpu0.decode.squashedInsts                 3874                       # Number of squashed instructions handled by decode (Count)
system.cpu0.executeStats0.numInsts           10729824                       # Number of executed instructions (Count)
system.cpu0.executeStats0.numNop                    0                       # Number of nop insts executed (Count)
system.cpu0.executeStats0.numBranches          687119                       # Number of branches executed (Count)
system.cpu0.executeStats0.numLoadInsts        1857495                       # Number of load instructions executed (Count)
system.cpu0.executeStats0.numStoreInsts        671936                       # Number of stores executed (Count)
system.cpu0.executeStats0.instRate           2.459981                       # Inst execution rate ((Count/Cycle))
system.cpu0.executeStats0.numCCRegReads       3462901                       # Number of times the CC registers were read (Count)
system.cpu0.executeStats0.numCCRegWrites      3220321                       # Number of times the CC registers were written (Count)
system.cpu0.executeStats0.numFpRegReads       3833856                       # Number of times the floating registers were read (Count)
[...]
system.ruby.network.data_traffic_distribution.n4.n11            0                       (Unspecified)
system.ruby.network.data_traffic_distribution.n4.n12            0                       (Unspecified)
system.ruby.network.data_traffic_distribution.n4.n13            0                       (Unspecified)
system.ruby.network.data_traffic_distribution.n4.n14            0                       (Unspecified)
system.ruby.network.data_traffic_distribution.n4.n15            0                       (Unspecified)
system.ruby.network.data_traffic_distribution.n4.n2            0                       (Unspecified)
system.ruby.network.data_traffic_distribution.n4.n3            0                       (Unspecified)
system.ruby.network.data_traffic_distribution.n4.n4            0                       (Unspecified)
system.ruby.network.data_traffic_distribution.n4.n5            0                       (Unspecified)
system.ruby.network.data_traffic_distribution.n4.n6            0                       (Unspecified)
system.ruby.network.data_traffic_distribution.n4.n7            0                       (Unspecified)
system.ruby.network.data_traffic_distribution.n4.n8            0                       (Unspecified)
system.ruby.network.data_traffic_distribution.n4.n9            0                       (Unspecified)
system.ruby.network.data_traffic_distribution.n5.n0         7019                       (Unspecified)
system.ruby.network.data_traffic_distribution.n5.n1            0                       (Unspecified)
system.ruby.network.data_traffic_distribution.n5.n10            0                       (Unspecified)
system.ruby.network.data_traffic_distribution.n5.n11            0                       (Unspecified)
system.ruby.network.data_traffic_distribution.n5.n12            0                       (Unspecified)
system.ruby.network.data_traffic_distribution.n5.n13            0                       (Unspecified)
system.ruby.network.data_traffic_distribution.n5.n14            0                       (Unspecified)
system.ruby.network.data_traffic_distribution.n5.n15            0                       (Unspecified)
system.ruby.network.data_traffic_distribution.n5.n2            0                       (Unspecified)
system.ruby.network.data_traffic_distribution.n5.n3            0                       (Unspecified)
system.ruby.network.data_traffic_distribution.n5.n4            0                       (Unspecified)
system.ruby.network.data_traffic_distribution.n5.n5            0                       (Unspecified)
system.ruby.network.data_traffic_distribution.n5.n6            0                       (Unspecified)
system.ruby.network.data_traffic_distribution.n5.n7            0                       (Unspecified)
system.ruby.network.data_traffic_distribution.n5.n8            0                       (Unspecified)
system.ruby.network.data_traffic_distribution.n5.n9            0                       (Unspecified)
system.ruby.network.data_traffic_distribution.n6.n0         6973                       (Unspecified)
system.ruby.network.data_traffic_distribution.n6.n1            0                       (Unspecified)
system.ruby.network.data_traffic_distribution.n6.n10            0                       (Unspecified)
system.ruby.network.data_traffic_distribution.n6.n11            0                       (Unspecified)
system.ruby.network.data_traffic_distribution.n6.n12            0                       (Unspecified)
system.ruby.network.data_traffic_distribution.n6.n13            0                       (Unspecified)
system.ruby.network.data_traffic_distribution.n6.n14            0                       (Unspecified)
system.ruby.network.data_traffic_distribution.n6.n15            0                       (Unspecified)
system.ruby.network.data_traffic_distribution.n6.n2            0                       (Unspecified)
system.ruby.network.data_traffic_distribution.n6.n3            0                       (Unspecified)
system.ruby.network.data_traffic_distribution.n6.n4            0                       (Unspecified)
system.ruby.network.data_traffic_distribution.n6.n5            0                       (Unspecified)
system.ruby.network.data_traffic_distribution.n6.n6            0                       (Unspecified)
system.ruby.network.data_traffic_distribution.n6.n7            0                       (Unspecified)
system.ruby.network.data_traffic_distribution.n6.n8            0                       (Unspecified)
system.ruby.network.data_traffic_distribution.n6.n9            0                       (Unspecified)
system.ruby.network.data_traffic_distribution.n7.n0         6907                       (Unspecified)
system.ruby.network.data_traffic_distribution.n7.n1            0                       (Unspecified)
system.ruby.network.data_traffic_distribution.n7.n10            0                       (Unspecified)
system.ruby.network.data_traffic_distribution.n7.n11            0                       (Unspecified)
system.ruby.network.data_traffic_distribution.n7.n12            0                       (Unspecified)
system.ruby.network.data_traffic_distribution.n7.n13            0                       (Unspecified)
system.ruby.network.data_traffic_distribution.n7.n14            0                       (Unspecified)
system.ruby.network.data_traffic_distribution.n7.n15            0                       (Unspecified)
system.ruby.network.data_traffic_distribution.n7.n2            0                       (Unspecified)
system.ruby.network.data_traffic_distribution.n7.n3            0                       (Unspecified)
system.ruby.network.data_traffic_distribution.n7.n4            0                       (Unspecified)
system.ruby.network.data_traffic_distribution.n7.n5            0                       (Unspecified)
system.ruby.network.data_traffic_distribution.n7.n6            0                       (Unspecified)
system.ruby.network.data_traffic_distribution.n7.n7            0                       (Unspecified)
system.ruby.network.data_traffic_distribution.n7.n8            0                       (Unspecified)
system.ruby.network.data_traffic_distribution.n7.n9            0                       (Unspecified)
system.ruby.network.data_traffic_distribution.n8.n0         6964                       (Unspecified)
system.ruby.network.data_traffic_distribution.n8.n1            0                       (Unspecified)
system.ruby.network.data_traffic_distribution.n8.n10            0                       (Unspecified)
system.ruby.network.data_traffic_distribution.n8.n11            0                       (Unspecified)
system.ruby.network.data_traffic_distribution.n8.n12            0                       (Unspecified)
system.ruby.network.data_traffic_distribution.n8.n13            0                       (Unspecified)
system.ruby.network.data_traffic_distribution.n8.n14            0                       (Unspecified)
system.ruby.network.data_traffic_distribution.n8.n15            0                       (Unspecified)
system.ruby.network.data_traffic_distribution.n8.n2            0                       (Unspecified)
system.ruby.network.data_traffic_distribution.n8.n3            0                       (Unspecified)
system.ruby.network.data_traffic_distribution.n8.n4            0                       (Unspecified)
system.ruby.network.data_traffic_distribution.n8.n5            0                       (Unspecified)
system.ruby.network.data_traffic_distribution.n8.n6            0                       (Unspecified)
system.ruby.network.data_traffic_distribution.n8.n7            0                       (Unspecified)
system.ruby.network.data_traffic_distribution.n8.n8            0                       (Unspecified)
system.ruby.network.data_traffic_distribution.n8.n9            0                       (Unspecified)
system.ruby.network.data_traffic_distribution.n9.n0         7061                       (Unspecified)
system.ruby.network.data_traffic_distribution.n9.n1            0                       (Unspecified)
system.ruby.network.data_traffic_distribution.n9.n10            0                       (Unspecified)
system.ruby.network.data_traffic_distribution.n9.n11            0                       (Unspecified)
system.ruby.network.data_traffic_distribution.n9.n12            0                       (Unspecified)
system.ruby.network.data_traffic_distribution.n9.n13            0                       (Unspecified)
system.ruby.network.data_traffic_distribution.n9.n14            0                       (Unspecified)
system.ruby.network.data_traffic_distribution.n9.n15            0                       (Unspecified)
system.ruby.network.data_traffic_distribution.n9.n2            0                       (Unspecified)
system.ruby.network.data_traffic_distribution.n9.n3            0                       (Unspecified)
system.ruby.network.data_traffic_distribution.n9.n4            0                       (Unspecified)
system.ruby.network.data_traffic_distribution.n9.n5            0                       (Unspecified)
system.ruby.network.data_traffic_distribution.n9.n6            0                       (Unspecified)
system.ruby.network.data_traffic_distribution.n9.n7            0                       (Unspecified)
system.ruby.network.data_traffic_distribution.n9.n8            0                       (Unspecified)
system.ruby.network.data_traffic_distribution.n9.n9            0                       (Unspecified)
system.ruby.network.ext_in_link_utilization      1658362                       (Unspecified)
system.ruby.network.ext_out_link_utilization      1658362                       (Unspecified)
system.ruby.network.flit_network_latency |  3000260500                       | 13944080500                       |   452088500                       |           0                       |           0                       (Unspecified)
system.ruby.network.flit_queueing_latency |   474465500                       |  1403351500                       |    53821000                       |           0                       |           0                       (Unspecified)
system.ruby.network.flits_injected       |      374948     22.61%     22.61% |     1175772     70.90%     93.51% |      107642      6.49%    100.00% |           0      0.00%    100.00% |           0      0.00%    100.00% (Unspecified)
system.ruby.network.flits_injected::total      1658362                       (Unspecified)
system.ruby.network.flits_received       |      374948     22.61%     22.61% |     1175772     70.90%     93.51% |      107642      6.49%    100.00% |           0      0.00%    100.00% |           0      0.00%    100.00% (Unspecified)
system.ruby.network.flits_received::total      1658362                       (Unspecified)
system.ruby.network.int_link_utilization      4061912                       (Unspecified)
system.ruby.network.packet_network_latency |  1955489500                       |  3827757000                       |   452088500                       |           0                       |           0                       (Unspecified)
system.ruby.network.packet_queueing_latency |   369919500                       |   395463500                       |    53821000                       |           0                       |           0                       (Unspecified)
system.ruby.network.packets_injected     |      293532     39.43%     39.43% |      343276     46.11%     85.54% |      107642     14.46%    100.00% |           0      0.00%    100.00% |           0      0.00%    100.00% (Unspecified)
system.ruby.network.packets_injected::total       744450                       (Unspecified)
system.ruby.network.packets_received     |      293532     39.43%     39.43% |      343276     46.11%     85.54% |      107642     14.46%    100.00% |           0      0.00%    100.00% |           0      0.00%    100.00% (Unspecified)
system.ruby.network.packets_received::total       744450                       (Unspecified)
system.ruby.network.routers00.buffer_reads      1658362                       (Unspecified)
system.ruby.network.routers00.buffer_writes      1658362                       (Unspecified)
system.ruby.network.routers00.crossbar_activity      1658362                       (Unspecified)
system.ruby.network.routers00.sw_input_arbiter_activity      1889822                       (Unspecified)
system.ruby.network.routers00.sw_output_arbiter_activity      1658362                       (Unspecified)
system.ruby.network.routers01.buffer_reads       901860                       (Unspecified)
system.ruby.network.routers01.buffer_writes       901860                       (Unspecified)
system.ruby.network.routers01.crossbar_activity       901860                       (Unspecified)
system.ruby.network.routers01.sw_input_arbiter_activity       915336                       (Unspecified)
system.ruby.network.routers01.sw_output_arbiter_activity       901860                       (Unspecified)
system.ruby.network.routers02.buffer_reads       602067                       (Unspecified)
system.ruby.network.routers02.buffer_writes       602067                       (Unspecified)
system.ruby.network.routers02.crossbar_activity       602067                       (Unspecified)
system.ruby.network.routers02.sw_input_arbiter_activity       611306                       (Unspecified)
system.ruby.network.routers02.sw_output_arbiter_activity       602067                       (Unspecified)
system.ruby.network.routers03.buffer_reads       298491                       (Unspecified)
system.ruby.network.routers03.buffer_writes       298491                       (Unspecified)
system.ruby.network.routers03.crossbar_activity       298491                       (Unspecified)
system.ruby.network.routers03.sw_input_arbiter_activity       299423                       (Unspecified)
system.ruby.network.routers03.sw_output_arbiter_activity       298491                       (Unspecified)
system.ruby.network.routers04.buffer_reads       539301                       (Unspecified)
system.ruby.network.routers04.buffer_writes       539301                       (Unspecified)
system.ruby.network.routers04.crossbar_activity       539301                       (Unspecified)
system.ruby.network.routers04.sw_input_arbiter_activity       654564                       (Unspecified)
system.ruby.network.routers04.sw_output_arbiter_activity       539301                       (Unspecified)
system.ruby.network.routers05.buffer_reads       195977                       (Unspecified)
system.ruby.network.routers05.buffer_writes       195977                       (Unspecified)
system.ruby.network.routers05.crossbar_activity       195977                       (Unspecified)
system.ruby.network.routers05.sw_input_arbiter_activity       202007                       (Unspecified)
system.ruby.network.routers05.sw_output_arbiter_activity       195977                       (Unspecified)
system.ruby.network.routers06.buffer_reads       158444                       (Unspecified)
system.ruby.network.routers06.buffer_writes       158444                       (Unspecified)
system.ruby.network.routers06.crossbar_activity       158444                       (Unspecified)
system.ruby.network.routers06.sw_input_arbiter_activity       161770                       (Unspecified)
system.ruby.network.routers06.sw_output_arbiter_activity       158444                       (Unspecified)
system.ruby.network.routers07.buffer_reads       120763                       (Unspecified)
system.ruby.network.routers07.buffer_writes       120763                       (Unspecified)
system.ruby.network.routers07.crossbar_activity       120763                       (Unspecified)
system.ruby.network.routers07.sw_input_arbiter_activity       121207                       (Unspecified)
system.ruby.network.routers07.sw_output_arbiter_activity       120763                       (Unspecified)
system.ruby.network.routers08.buffer_reads       361621                       (Unspecified)
system.ruby.network.routers08.buffer_writes       361621                       (Unspecified)
system.ruby.network.routers08.crossbar_activity       361621                       (Unspecified)
system.ruby.network.routers08.sw_input_arbiter_activity       429052                       (Unspecified)
system.ruby.network.routers08.sw_output_arbiter_activity       361621                       (Unspecified)
system.ruby.network.routers09.buffer_reads       175399                       (Unspecified)
system.ruby.network.routers09.buffer_writes       175399                       (Unspecified)
system.ruby.network.routers09.crossbar_activity       175399                       (Unspecified)
system.ruby.network.routers09.sw_input_arbiter_activity       182980                       (Unspecified)
system.ruby.network.routers09.sw_output_arbiter_activity       175399                       (Unspecified)
system.ruby.network.routers10.buffer_reads       135895                       (Unspecified)
system.ruby.network.routers10.buffer_writes       135895                       (Unspecified)
system.ruby.network.routers10.crossbar_activity       135895                       (Unspecified)
system.ruby.network.routers10.sw_input_arbiter_activity       139791                       (Unspecified)
system.ruby.network.routers10.sw_output_arbiter_activity       135895                       (Unspecified)
system.ruby.network.routers11.buffer_reads        96404                       (Unspecified)
system.ruby.network.routers11.buffer_writes        96404                       (Unspecified)
system.ruby.network.routers11.crossbar_activity        96404                       (Unspecified)
system.ruby.network.routers11.sw_input_arbiter_activity        96953                       (Unspecified)
system.ruby.network.routers11.sw_output_arbiter_activity        96404                       (Unspecified)
system.ruby.network.routers12.buffer_reads       175217                       (Unspecified)
system.ruby.network.routers12.buffer_writes       175217                       (Unspecified)
system.ruby.network.routers12.crossbar_activity       175217                       (Unspecified)
system.ruby.network.routers12.sw_input_arbiter_activity       183694                       (Unspecified)
system.ruby.network.routers12.sw_output_arbiter_activity       175217                       (Unspecified)
system.ruby.network.routers13.buffer_reads       137478                       (Unspecified)
system.ruby.network.routers13.buffer_writes       137478                       (Unspecified)
system.ruby.network.routers13.crossbar_activity       137478                       (Unspecified)
system.ruby.network.routers13.sw_input_arbiter_activity       144263                       (Unspecified)
system.ruby.network.routers13.sw_output_arbiter_activity       137478                       (Unspecified)
system.ruby.network.routers14.buffer_reads        99896                       (Unspecified)
system.ruby.network.routers14.buffer_writes        99896                       (Unspecified)
system.ruby.network.routers14.crossbar_activity        99896                       (Unspecified)
system.ruby.network.routers14.sw_input_arbiter_activity       103834                       (Unspecified)
system.ruby.network.routers14.sw_output_arbiter_activity        99896                       (Unspecified)
system.ruby.network.routers15.buffer_reads        63099                       (Unspecified)
system.ruby.network.routers15.buffer_writes        63099                       (Unspecified)
system.ruby.network.routers15.crossbar_activity        63099                       (Unspecified)
system.ruby.network.routers15.sw_input_arbiter_activity        63533                       (Unspecified)
system.ruby.network.routers15.sw_output_arbiter_activity        63099                       (Unspecified)

---------- End Simulation Statistics   ----------
