
---------- Begin Simulation Statistics ----------
simSeconds                                   0.063931                       # Number of seconds simulated (Second)
simTicks                                  63931191000                       # Number of ticks simulated (Tick)
finalTick                                 63931191000                       # Number of ticks from beginning of simulation (restored from checkpoints and never reset) (Tick)
simFreq                                  1000000000000                       # The number of ticks per simulated second ((Tick/Second))
hostSeconds                                   4023.07                       # Real time elapsed on the host (Second)
hostTickRate                                 15891154                       # The number of ticks simulated per host second (ticks/s) ((Tick/Second))
hostMemory                                    1633520                       # Number of bytes of host memory used (Byte)
simInsts                                    348309988                       # Number of instructions simulated (Count)
simOps                                      518878492                       # Number of ops (including micro ops) simulated (Count)
hostInstRate                                    86578                       # Simulator instruction rate (inst/s) ((Count/Second))
hostOpRate                                     128976                       # Simulator op (including micro ops) rate (op/s) ((Count/Second))
system.clk_domain.clock                          1000                       # Clock period in ticks (Tick)
system.cpu0.numCycles                       107632327                       # Number of cpu cycles simulated (Cycle)
system.cpu0.numWorkItemsStarted                     0                       # Number of work items this cpu started (Count)
system.cpu0.numWorkItemsCompleted                   0                       # Number of work items this cpu completed (Count)
system.cpu0.instsAdded                      163009391                       # Number of instructions added to the IQ (excludes non-spec) (Count)
system.cpu0.nonSpecInstsAdded                     885                       # Number of non-speculative instructions added to the IQ (Count)
system.cpu0.instsIssued                     155826742                       # Number of instructions issued (Count)
system.cpu0.squashedInstsIssued                   739                       # Number of squashed instructions issued (Count)
system.cpu0.squashedInstsExamined            44364797                       # Number of squashed instructions iterated over during squash; mainly for profiling (Count)
system.cpu0.squashedOperandsExamined         29629645                       # Number of squashed operands that are examined and possibly removed from graph (Count)
system.cpu0.squashedNonSpecRemoved                117                       # Number of squashed non-spec instructions that were removed (Count)
system.cpu0.numIssuedDist::samples          106564256                       # Number of insts issued each cycle (Count)
system.cpu0.numIssuedDist::mean              1.462280                       # Number of insts issued each cycle (Count)
system.cpu0.numIssuedDist::stdev             2.260649                       # Number of insts issued each cycle (Count)
system.cpu0.numIssuedDist::underflows               0      0.00%      0.00% # Number of insts issued each cycle (Count)
system.cpu0.numIssuedDist::0                 64922090     60.92%     60.92% # Number of insts issued each cycle (Count)
system.cpu0.numIssuedDist::1                  7647114      7.18%     68.10% # Number of insts issued each cycle (Count)
system.cpu0.numIssuedDist::2                  6896885      6.47%     74.57% # Number of insts issued each cycle (Count)
system.cpu0.numIssuedDist::3                  6371028      5.98%     80.55% # Number of insts issued each cycle (Count)
system.cpu0.numIssuedDist::4                  6025549      5.65%     86.20% # Number of insts issued each cycle (Count)
system.cpu0.numIssuedDist::5                  5160917      4.84%     91.05% # Number of insts issued each cycle (Count)
system.cpu0.numIssuedDist::6                  4122267      3.87%     94.92% # Number of insts issued each cycle (Count)
system.cpu0.numIssuedDist::7                  2714857      2.55%     97.46% # Number of insts issued each cycle (Count)
system.cpu0.numIssuedDist::8                  2703549      2.54%    100.00% # Number of insts issued each cycle (Count)
system.cpu0.numIssuedDist::overflows                0      0.00%    100.00% # Number of insts issued each cycle (Count)
system.cpu0.numIssuedDist::min_value                0                       # Number of insts issued each cycle (Count)
system.cpu0.numIssuedDist::max_value                8                       # Number of insts issued each cycle (Count)
system.cpu0.numIssuedDist::total            106564256                       # Number of insts issued each cycle (Count)
system.cpu0.statFuBusy::No_OpClass                  0      0.00%      0.00% # attempts to use FU when none available (Count)
system.cpu0.statFuBusy::IntAlu                 308591     22.26%     22.26% # attempts to use FU when none available (Count)
system.cpu0.statFuBusy::IntMult                     0      0.00%     22.26% # attempts to use FU when none available (Count)
system.cpu0.statFuBusy::IntDiv                      0      0.00%     22.26% # attempts to use FU when none available (Count)
system.cpu0.statFuBusy::FloatAdd                    7      0.00%     22.26% # attempts to use FU when none available (Count)
system.cpu0.statFuBusy::FloatCmp                    0      0.00%     22.26% # attempts to use FU when none available (Count)
system.cpu0.statFuBusy::FloatCvt                    0      0.00%     22.26% # attempts to use FU when none available (Count)
system.cpu0.statFuBusy::FloatMult                   0      0.00%     22.26% # attempts to use FU when none available (Count)
system.cpu0.statFuBusy::FloatMultAcc                0      0.00%     22.26% # attempts to use FU when none available (Count)
system.cpu0.statFuBusy::FloatDiv                    0      0.00%     22.26% # attempts to use FU when none available (Count)
system.cpu0.statFuBusy::FloatMisc                   0      0.00%     22.26% # attempts to use FU when none available (Count)
system.cpu0.statFuBusy::FloatSqrt                   0      0.00%     22.26% # attempts to use FU when none available (Count)
system.cpu0.statFuBusy::SimdAdd                     0      0.00%     22.26% # attempts to use FU when none available (Count)
system.cpu0.statFuBusy::SimdAddAcc                  0      0.00%     22.26% # attempts to use FU when none available (Count)
system.cpu0.statFuBusy::SimdAlu                 53631      3.87%     26.12% # attempts to use FU when none available (Count)
system.cpu0.statFuBusy::SimdCmp                     0      0.00%     26.12% # attempts to use FU when none available (Count)
system.cpu0.statFuBusy::SimdCvt                    23      0.00%     26.13% # attempts to use FU when none available (Count)
system.cpu0.statFuBusy::SimdMisc                    0      0.00%     26.13% # attempts to use FU when none available (Count)
system.cpu0.statFuBusy::SimdMult                    0      0.00%     26.13% # attempts to use FU when none available (Count)
system.cpu0.statFuBusy::SimdMultAcc                 0      0.00%     26.13% # attempts to use FU when none available (Count)
system.cpu0.statFuBusy::SimdShift                  19      0.00%     26.13% # attempts to use FU when none available (Count)
system.cpu0.statFuBusy::SimdShiftAcc                0      0.00%     26.13% # attempts to use FU when none available (Count)
system.cpu0.statFuBusy::SimdDiv                     0      0.00%     26.13% # attempts to use FU when none available (Count)
system.cpu0.statFuBusy::SimdSqrt                    0      0.00%     26.13% # attempts to use FU when none available (Count)
system.cpu0.statFuBusy::SimdFloatAdd               13      0.00%     26.13% # attempts to use FU when none available (Count)
system.cpu0.statFuBusy::SimdFloatAlu                0      0.00%     26.13% # attempts to use FU when none available (Count)
system.cpu0.statFuBusy::SimdFloatCmp                0      0.00%     26.13% # attempts to use FU when none available (Count)
system.cpu0.statFuBusy::SimdFloatCvt               17      0.00%     26.13% # attempts to use FU when none available (Count)
system.cpu0.statFuBusy::SimdFloatDiv                0      0.00%     26.13% # attempts to use FU when none available (Count)
system.cpu0.statFuBusy::SimdFloatMisc               0      0.00%     26.13% # attempts to use FU when none available (Count)
system.cpu0.statFuBusy::SimdFloatMult           29294      2.11%     28.24% # attempts to use FU when none available (Count)
system.cpu0.statFuBusy::SimdFloatMultAcc            0      0.00%     28.24% # attempts to use FU when none available (Count)
system.cpu0.statFuBusy::SimdFloatSqrt               0      0.00%     28.24% # attempts to use FU when none available (Count)
system.cpu0.statFuBusy::SimdReduceAdd               0      0.00%     28.24% # attempts to use FU when none available (Count)
system.cpu0.statFuBusy::SimdReduceAlu               0      0.00%     28.24% # attempts to use FU when none available (Count)
system.cpu0.statFuBusy::SimdReduceCmp               0      0.00%     28.24% # attempts to use FU when none available (Count)
system.cpu0.statFuBusy::SimdFloatReduceAdd            0      0.00%     28.24% # attempts to use FU when none available (Count)
system.cpu0.statFuBusy::SimdFloatReduceCmp            0      0.00%     28.24% # attempts to use FU when none available (Count)
system.cpu0.statFuBusy::SimdAes                     0      0.00%     28.24% # attempts to use FU when none available (Count)
system.cpu0.statFuBusy::SimdAesMix                  0      0.00%     28.24% # attempts to use FU when none available (Count)
system.cpu0.statFuBusy::SimdSha1Hash                0      0.00%     28.24% # attempts to use FU when none available (Count)
system.cpu0.statFuBusy::SimdSha1Hash2               0      0.00%     28.24% # attempts to use FU when none available (Count)
system.cpu0.statFuBusy::SimdSha256Hash              0      0.00%     28.24% # attempts to use FU when none available (Count)
system.cpu0.statFuBusy::SimdSha256Hash2             0      0.00%     28.24% # attempts to use FU when none available (Count)
system.cpu0.statFuBusy::SimdShaSigma2               0      0.00%     28.24% # attempts to use FU when none available (Count)
system.cpu0.statFuBusy::SimdShaSigma3               0      0.00%     28.24% # attempts to use FU when none available (Count)
system.cpu0.statFuBusy::SimdPredAlu                 0      0.00%     28.24% # attempts to use FU when none available (Count)
system.cpu0.statFuBusy::Matrix                      0      0.00%     28.24% # attempts to use FU when none available (Count)
system.cpu0.statFuBusy::MatrixMov                   0      0.00%     28.24% # attempts to use FU when none available (Count)
system.cpu0.statFuBusy::MatrixOP                    0      0.00%     28.24% # attempts to use FU when none available (Count)
system.cpu0.statFuBusy::MemRead                834582     60.19%     88.43% # attempts to use FU when none available (Count)
system.cpu0.statFuBusy::MemWrite                 2045      0.15%     88.58% # attempts to use FU when none available (Count)
system.cpu0.statFuBusy::FloatMemRead           158089     11.40%     99.98% # attempts to use FU when none available (Count)
system.cpu0.statFuBusy::FloatMemWrite             298      0.02%    100.00% # attempts to use FU when none available (Count)
system.cpu0.statFuBusy::IprAccess                   0      0.00%    100.00% # attempts to use FU when none available (Count)
system.cpu0.statFuBusy::InstPrefetch                0      0.00%    100.00% # attempts to use FU when none available (Count)
system.cpu0.statIssuedInstType_0::No_OpClass         7927      0.01%      0.01% # Number of instructions issued per FU type, per thread (Count)
system.cpu0.statIssuedInstType_0::IntAlu     83044732     53.29%     53.30% # Number of instructions issued per FU type, per thread (Count)
system.cpu0.statIssuedInstType_0::IntMult          606      0.00%     53.30% # Number of instructions issued per FU type, per thread (Count)
system.cpu0.statIssuedInstType_0::IntDiv         1555      0.00%     53.30% # Number of instructions issued per FU type, per thread (Count)
system.cpu0.statIssuedInstType_0::FloatAdd     19022183     12.21%     65.51% # Number of instructions issued per FU type, per thread (Count)
system.cpu0.statIssuedInstType_0::FloatCmp            0      0.00%     65.51% # Number of instructions issued per FU type, per thread (Count)
system.cpu0.statIssuedInstType_0::FloatCvt           32      0.00%     65.51% # Number of instructions issued per FU type, per thread (Count)
system.cpu0.statIssuedInstType_0::FloatMult            0      0.00%     65.51% # Number of instructions issued per FU type, per thread (Count)
system.cpu0.statIssuedInstType_0::FloatMultAcc            0      0.00%     65.51% # Number of instructions issued per FU type, per thread (Count)
system.cpu0.statIssuedInstType_0::FloatDiv            0      0.00%     65.51% # Number of instructions issued per FU type, per thread (Count)
system.cpu0.statIssuedInstType_0::FloatMisc            0      0.00%     65.51% # Number of instructions issued per FU type, per thread (Count)
system.cpu0.statIssuedInstType_0::FloatSqrt            0      0.00%     65.51% # Number of instructions issued per FU type, per thread (Count)
system.cpu0.statIssuedInstType_0::SimdAdd          463      0.00%     65.51% # Number of instructions issued per FU type, per thread (Count)
system.cpu0.statIssuedInstType_0::SimdAddAcc            0      0.00%     65.51% # Number of instructions issued per FU type, per thread (Count)
system.cpu0.statIssuedInstType_0::SimdAlu      4774781      3.06%     68.57% # Number of instructions issued per FU type, per thread (Count)
system.cpu0.statIssuedInstType_0::SimdCmp            0      0.00%     68.57% # Number of instructions issued per FU type, per thread (Count)
system.cpu0.statIssuedInstType_0::SimdCvt         2090      0.00%     68.57% # Number of instructions issued per FU type, per thread (Count)
system.cpu0.statIssuedInstType_0::SimdMisc         3268      0.00%     68.57% # Number of instructions issued per FU type, per thread (Count)
system.cpu0.statIssuedInstType_0::SimdMult            0      0.00%     68.57% # Number of instructions issued per FU type, per thread (Count)
system.cpu0.statIssuedInstType_0::SimdMultAcc            0      0.00%     68.57% # Number of instructions issued per FU type, per thread (Count)
system.cpu0.statIssuedInstType_0::SimdShift          434      0.00%     68.57% # Number of instructions issued per FU type, per thread (Count)
system.cpu0.statIssuedInstType_0::SimdShiftAcc            0      0.00%     68.57% # Number of instructions issued per FU type, per thread (Count)
system.cpu0.statIssuedInstType_0::SimdDiv            0      0.00%     68.57% # Number of instructions issued per FU type, per thread (Count)
system.cpu0.statIssuedInstType_0::SimdSqrt            0      0.00%     68.57% # Number of instructions issued per FU type, per thread (Count)
system.cpu0.statIssuedInstType_0::SimdFloatAdd      3843720      2.47%     71.04% # Number of instructions issued per FU type, per thread (Count)
system.cpu0.statIssuedInstType_0::SimdFloatAlu            0      0.00%     71.04% # Number of instructions issued per FU type, per thread (Count)
system.cpu0.statIssuedInstType_0::SimdFloatCmp            0      0.00%     71.04% # Number of instructions issued per FU type, per thread (Count)
system.cpu0.statIssuedInstType_0::SimdFloatCvt      3723097      2.39%     73.43% # Number of instructions issued per FU type, per thread (Count)
system.cpu0.statIssuedInstType_0::SimdFloatDiv       550534      0.35%     73.78% # Number of instructions issued per FU type, per thread (Count)
system.cpu0.statIssuedInstType_0::SimdFloatMisc            0      0.00%     73.78% # Number of instructions issued per FU type, per thread (Count)
system.cpu0.statIssuedInstType_0::SimdFloatMult      3403289      2.18%     75.97% # Number of instructions issued per FU type, per thread (Count)
system.cpu0.statIssuedInstType_0::SimdFloatMultAcc            0      0.00%     75.97% # Number of instructions issued per FU type, per thread (Count)
system.cpu0.statIssuedInstType_0::SimdFloatSqrt            0      0.00%     75.97% # Number of instructions issued per FU type, per thread (Count)
system.cpu0.statIssuedInstType_0::SimdReduceAdd            0      0.00%     75.97% # Number of instructions issued per FU type, per thread (Count)
system.cpu0.statIssuedInstType_0::SimdReduceAlu            0      0.00%     75.97% # Number of instructions issued per FU type, per thread (Count)
system.cpu0.statIssuedInstType_0::SimdReduceCmp            0      0.00%     75.97% # Number of instructions issued per FU type, per thread (Count)
system.cpu0.statIssuedInstType_0::SimdFloatReduceAdd            0      0.00%     75.97% # Number of instructions issued per FU type, per thread (Count)
system.cpu0.statIssuedInstType_0::SimdFloatReduceCmp            0      0.00%     75.97% # Number of instructions issued per FU type, per thread (Count)
system.cpu0.statIssuedInstType_0::SimdAes            0      0.00%     75.97% # Number of instructions issued per FU type, per thread (Count)
system.cpu0.statIssuedInstType_0::SimdAesMix            0      0.00%     75.97% # Number of instructions issued per FU type, per thread (Count)
system.cpu0.statIssuedInstType_0::SimdSha1Hash            0      0.00%     75.97% # Number of instructions issued per FU type, per thread (Count)
system.cpu0.statIssuedInstType_0::SimdSha1Hash2            0      0.00%     75.97% # Number of instructions issued per FU type, per thread (Count)
system.cpu0.statIssuedInstType_0::SimdSha256Hash            0      0.00%     75.97% # Number of instructions issued per FU type, per thread (Count)
system.cpu0.statIssuedInstType_0::SimdSha256Hash2            0      0.00%     75.97% # Number of instructions issued per FU type, per thread (Count)
system.cpu0.statIssuedInstType_0::SimdShaSigma2            0      0.00%     75.97% # Number of instructions issued per FU type, per thread (Count)
system.cpu0.statIssuedInstType_0::SimdShaSigma3            0      0.00%     75.97% # Number of instructions issued per FU type, per thread (Count)
system.cpu0.statIssuedInstType_0::SimdPredAlu            0      0.00%     75.97% # Number of instructions issued per FU type, per thread (Count)
system.cpu0.statIssuedInstType_0::Matrix            0      0.00%     75.97% # Number of instructions issued per FU type, per thread (Count)
system.cpu0.statIssuedInstType_0::MatrixMov            0      0.00%     75.97% # Number of instructions issued per FU type, per thread (Count)
system.cpu0.statIssuedInstType_0::MatrixOP            0      0.00%     75.97% # Number of instructions issued per FU type, per thread (Count)
system.cpu0.statIssuedInstType_0::MemRead     21610688     13.87%     89.84% # Number of instructions issued per FU type, per thread (Count)
system.cpu0.statIssuedInstType_0::MemWrite      1781510      1.14%     90.98% # Number of instructions issued per FU type, per thread (Count)
system.cpu0.statIssuedInstType_0::FloatMemRead     11757844      7.55%     98.53% # Number of instructions issued per FU type, per thread (Count)
system.cpu0.statIssuedInstType_0::FloatMemWrite      2297989      1.47%    100.00% # Number of instructions issued per FU type, per thread (Count)
system.cpu0.statIssuedInstType_0::IprAccess            0      0.00%    100.00% # Number of instructions issued per FU type, per thread (Count)
system.cpu0.statIssuedInstType_0::InstPrefetch            0      0.00%    100.00% # Number of instructions issued per FU type, per thread (Count)
system.cpu0.statIssuedInstType_0::total     155826742                       # Number of instructions issued per FU type, per thread (Count)
system.cpu0.issueRate                        1.447769                       # Inst issue rate ((Count/Cycle))
system.cpu0.fuBusy                            1386609                       # FU busy when requested (Count)
system.cpu0.fuBusyRate                       0.008898                       # FU busy rate (busy events/executed inst) ((Count/Count))
system.cpu0.intInstQueueReads               312029207                       # Number of integer instruction queue reads (Count)
system.cpu0.intInstQueueWrites              133507952                       # Number of integer instruction queue writes (Count)
system.cpu0.intInstQueueWakeupAccesses      101950038                       # Number of integer instruction queue wakeup accesses (Count)
system.cpu0.fpInstQueueReads                107575881                       # Number of floating instruction queue reads (Count)
system.cpu0.fpInstQueueWrites                73869458                       # Number of floating instruction queue writes (Count)
system.cpu0.fpInstQueueWakeupAccesses        52311299                       # Number of floating instruction queue wakeup accesses (Count)
system.cpu0.vecInstQueueReads                       0                       # Number of vector instruction queue reads (Count)
system.cpu0.vecInstQueueWrites                      0                       # Number of vector instruction queue writes (Count)
system.cpu0.vecInstQueueWakeupAccesses              0                       # Number of vector instruction queue wakeup accesses (Count)
system.cpu0.intAluAccesses                  103296800                       # Number of integer alu accesses (Count)
system.cpu0.fpAluAccesses                    53908624                       # Number of floating point alu accesses (Count)
system.cpu0.vecAluAccesses                          0                       # Number of vector alu accesses (Count)
system.cpu0.numInsts                        155792481                       # Number of executed instructions (Count)
system.cpu0.numLoadInsts                     33359262                       # Number of load instructions executed (Count)
system.cpu0.numSquashedInsts                    34261                       # Number of squashed instructions skipped in execute (Count)
system.cpu0.numSwp                                  0                       # Number of swp insts executed (Count)
system.cpu0.numNop                                  0                       # Number of nop insts executed (Count)
system.cpu0.numRefs                          37438058                       # Number of memory reference insts executed (Count)
system.cpu0.numBranches                       1890703                       # Number of branches executed (Count)
system.cpu0.numStoreInsts                     4078796                       # Number of stores executed (Count)
system.cpu0.numRate                          1.447451                       # Inst execution rate ((Count/Cycle))
system.cpu0.timesIdled                          18152                       # Number of times that the entire CPU went into an idle state and unscheduled itself (Count)
system.cpu0.idleCycles                        1068071                       # Total number of cycles that the CPU has spent unscheduled due to idling (Cycle)
system.cpu0.committedInsts                   80717107                       # Number of Instructions Simulated (Count)
system.cpu0.committedOps                    118645479                       # Number of Ops (including micro ops) Simulated (Count)
system.cpu0.cpi                              1.333451                       # CPI: Cycles Per Instruction ((Cycle/Count))
system.cpu0.totalCpi                         1.333451                       # CPI: Total CPI of All Threads ((Cycle/Count))
system.cpu0.ipc                              0.749934                       # IPC: Instructions Per Cycle ((Count/Cycle))
system.cpu0.totalIpc                         0.749934                       # IPC: Total IPC of All Threads ((Count/Cycle))
system.cpu0.intRegfileReads                 153981560                       # Number of integer regfile reads (Count)
system.cpu0.intRegfileWrites                 96617307                       # Number of integer regfile writes (Count)
system.cpu0.fpRegfileReads                   51273715                       # Number of floating regfile reads (Count)
system.cpu0.fpRegfileWrites                  50043165                       # Number of floating regfile writes (Count)
system.cpu0.ccRegfileReads                   18478696                       # number of cc regfile reads (Count)
system.cpu0.ccRegfileWrites                  50946805                       # number of cc regfile writes (Count)
system.cpu0.miscRegfileReads                 52658273                       # number of misc regfile reads (Count)
system.cpu0.miscRegfileWrites                      18                       # number of misc regfile writes (Count)
system.cpu0.MemDepUnit__0.insertedLoads      33750975                       # Number of loads inserted to the mem dependence unit. (Count)
system.cpu0.MemDepUnit__0.insertedStores      4750453                       # Number of stores inserted to the mem dependence unit. (Count)
system.cpu0.MemDepUnit__0.conflictingLoads      6716450                       # Number of conflicting loads. (Count)
system.cpu0.MemDepUnit__0.conflictingStores       711277                       # Number of conflicting stores. (Count)
system.cpu0.MemDepUnit__1.insertedLoads             0                       # Number of loads inserted to the mem dependence unit. (Count)
system.cpu0.MemDepUnit__1.insertedStores            0                       # Number of stores inserted to the mem dependence unit. (Count)
system.cpu0.MemDepUnit__1.conflictingLoads            0                       # Number of conflicting loads. (Count)
system.cpu0.MemDepUnit__1.conflictingStores            0                       # Number of conflicting stores. (Count)
system.cpu0.MemDepUnit__2.insertedLoads             0                       # Number of loads inserted to the mem dependence unit. (Count)
system.cpu0.MemDepUnit__2.insertedStores            0                       # Number of stores inserted to the mem dependence unit. (Count)
system.cpu0.MemDepUnit__2.conflictingLoads            0                       # Number of conflicting loads. (Count)
system.cpu0.MemDepUnit__2.conflictingStores            0                       # Number of conflicting stores. (Count)
system.cpu0.MemDepUnit__3.insertedLoads             0                       # Number of loads inserted to the mem dependence unit. (Count)
system.cpu0.MemDepUnit__3.insertedStores            0                       # Number of stores inserted to the mem dependence unit. (Count)
system.cpu0.MemDepUnit__3.conflictingLoads            0                       # Number of conflicting loads. (Count)
system.cpu0.MemDepUnit__3.conflictingStores            0                       # Number of conflicting stores. (Count)
system.cpu0.branchPred.lookups                2056525                       # Number of BP lookups (Count)
system.cpu0.branchPred.condPredicted          1938849                       # Number of conditional branches predicted (Count)
system.cpu0.branchPred.condIncorrect            15465                       # Number of conditional branches incorrect (Count)
system.cpu0.branchPred.BTBLookups             1902039                       # Number of BTB lookups (Count)
system.cpu0.branchPred.BTBUpdates                3346                       # Number of BTB updates (Count)
system.cpu0.branchPred.BTBHits                1899402                       # Number of BTB hits (Count)
system.cpu0.branchPred.BTBHitRatio           0.998614                       # BTB Hit Ratio (Ratio)
system.cpu0.branchPred.RASUsed                   4679                       # Number of times the RAS was used to get a target. (Count)
system.cpu0.branchPred.RASIncorrect                 5                       # Number of incorrect RAS predictions. (Count)
system.cpu0.branchPred.indirectLookups           2569                       # Number of indirect predictor lookups. (Count)
system.cpu0.branchPred.indirectHits              1341                       # Number of indirect target hits. (Count)
system.cpu0.branchPred.indirectMisses            1228                       # Number of indirect misses. (Count)
system.cpu0.branchPred.indirectMispredicted          353                       # Number of mispredicted indirect branches. (Count)
system.cpu0.commit.commitSquashedInsts       44249515                       # The number of squashed insts skipped by commit (Count)
system.cpu0.commit.commitNonSpecStalls            768                       # The number of times commit has been forced to stall to communicate backwards (Count)
system.cpu0.commit.branchMispredicts            15375                       # The number of times a branch was mispredicted (Count)
system.cpu0.commit.numCommittedDist::samples    100900840                       # Number of insts commited each cycle (Count)
system.cpu0.commit.numCommittedDist::mean     1.175862                       # Number of insts commited each cycle (Count)
system.cpu0.commit.numCommittedDist::stdev     2.684227                       # Number of insts commited each cycle (Count)
system.cpu0.commit.numCommittedDist::underflows            0      0.00%      0.00% # Number of insts commited each cycle (Count)
system.cpu0.commit.numCommittedDist::0       80880197     80.16%     80.16% # Number of insts commited each cycle (Count)
system.cpu0.commit.numCommittedDist::1        3812211      3.78%     83.94% # Number of insts commited each cycle (Count)
system.cpu0.commit.numCommittedDist::2         751007      0.74%     84.68% # Number of insts commited each cycle (Count)
system.cpu0.commit.numCommittedDist::3         430462      0.43%     85.11% # Number of insts commited each cycle (Count)
system.cpu0.commit.numCommittedDist::4         629461      0.62%     85.73% # Number of insts commited each cycle (Count)
system.cpu0.commit.numCommittedDist::5        1287627      1.28%     87.01% # Number of insts commited each cycle (Count)
system.cpu0.commit.numCommittedDist::6         725528      0.72%     87.73% # Number of insts commited each cycle (Count)
system.cpu0.commit.numCommittedDist::7         344055      0.34%     88.07% # Number of insts commited each cycle (Count)
system.cpu0.commit.numCommittedDist::8       12040292     11.93%    100.00% # Number of insts commited each cycle (Count)
system.cpu0.commit.numCommittedDist::overflows            0      0.00%    100.00% # Number of insts commited each cycle (Count)
system.cpu0.commit.numCommittedDist::min_value            0                       # Number of insts commited each cycle (Count)
system.cpu0.commit.numCommittedDist::max_value            8                       # Number of insts commited each cycle (Count)
system.cpu0.commit.numCommittedDist::total    100900840                       # Number of insts commited each cycle (Count)
system.cpu0.commit.instsCommitted            80717107                       # Number of instructions committed (Count)
system.cpu0.commit.opsCommitted             118645479                       # Number of ops (including micro ops) committed (Count)
system.cpu0.commit.memRefs                   28421351                       # Number of memory references committed (Count)
system.cpu0.commit.loads                     24801566                       # Number of loads committed (Count)
system.cpu0.commit.amos                             0                       # Number of atomic instructions committed (Count)
system.cpu0.commit.membars                        500                       # Number of memory barriers committed (Count)
system.cpu0.commit.branches                   1569535                       # Number of branches committed (Count)
system.cpu0.commit.vectorInstructions               0                       # Number of committed Vector instructions. (Count)
system.cpu0.commit.floating                  43491944                       # Number of committed floating point instructions. (Count)
system.cpu0.commit.integer                   86151747                       # Number of committed integer instructions. (Count)
system.cpu0.commit.functionCalls                 3672                       # Number of function calls committed. (Count)
system.cpu0.commit.committedInstType_0::No_OpClass         4897      0.00%      0.00% # Class of committed instruction (Count)
system.cpu0.commit.committedInstType_0::IntAlu     61349801     51.71%     51.71% # Class of committed instruction (Count)
system.cpu0.commit.committedInstType_0::IntMult          591      0.00%     51.71% # Class of committed instruction (Count)
system.cpu0.commit.committedInstType_0::IntDiv         1429      0.00%     51.71% # Class of committed instruction (Count)
system.cpu0.commit.committedInstType_0::FloatAdd     13594780     11.46%     63.17% # Class of committed instruction (Count)
system.cpu0.commit.committedInstType_0::FloatCmp            0      0.00%     63.17% # Class of committed instruction (Count)
system.cpu0.commit.committedInstType_0::FloatCvt           32      0.00%     63.17% # Class of committed instruction (Count)
system.cpu0.commit.committedInstType_0::FloatMult            0      0.00%     63.17% # Class of committed instruction (Count)
system.cpu0.commit.committedInstType_0::FloatMultAcc            0      0.00%     63.17% # Class of committed instruction (Count)
system.cpu0.commit.committedInstType_0::FloatDiv            0      0.00%     63.17% # Class of committed instruction (Count)
system.cpu0.commit.committedInstType_0::FloatMisc            0      0.00%     63.17% # Class of committed instruction (Count)
system.cpu0.commit.committedInstType_0::FloatSqrt            0      0.00%     63.17% # Class of committed instruction (Count)
system.cpu0.commit.committedInstType_0::SimdAdd          350      0.00%     63.17% # Class of committed instruction (Count)
system.cpu0.commit.committedInstType_0::SimdAddAcc            0      0.00%     63.17% # Class of committed instruction (Count)
system.cpu0.commit.committedInstType_0::SimdAlu      4103934      3.46%     66.63% # Class of committed instruction (Count)
system.cpu0.commit.committedInstType_0::SimdCmp            0      0.00%     66.63% # Class of committed instruction (Count)
system.cpu0.commit.committedInstType_0::SimdCvt         1672      0.00%     66.63% # Class of committed instruction (Count)
system.cpu0.commit.committedInstType_0::SimdMisc         2990      0.00%     66.64% # Class of committed instruction (Count)
system.cpu0.commit.committedInstType_0::SimdMult            0      0.00%     66.64% # Class of committed instruction (Count)
system.cpu0.commit.committedInstType_0::SimdMultAcc            0      0.00%     66.64% # Class of committed instruction (Count)
system.cpu0.commit.committedInstType_0::SimdShift          164      0.00%     66.64% # Class of committed instruction (Count)
system.cpu0.commit.committedInstType_0::SimdShiftAcc            0      0.00%     66.64% # Class of committed instruction (Count)
system.cpu0.commit.committedInstType_0::SimdDiv            0      0.00%     66.64% # Class of committed instruction (Count)
system.cpu0.commit.committedInstType_0::SimdSqrt            0      0.00%     66.64% # Class of committed instruction (Count)
system.cpu0.commit.committedInstType_0::SimdFloatAdd      3703936      3.12%     69.76% # Class of committed instruction (Count)
system.cpu0.commit.committedInstType_0::SimdFloatAlu            0      0.00%     69.76% # Class of committed instruction (Count)
system.cpu0.commit.committedInstType_0::SimdFloatCmp            0      0.00%     69.76% # Class of committed instruction (Count)
system.cpu0.commit.committedInstType_0::SimdFloatCvt      3605595      3.04%     72.80% # Class of committed instruction (Count)
system.cpu0.commit.committedInstType_0::SimdFloatDiv       519938      0.44%     73.24% # Class of committed instruction (Count)
system.cpu0.commit.committedInstType_0::SimdFloatMisc            0      0.00%     73.24% # Class of committed instruction (Count)
system.cpu0.commit.committedInstType_0::SimdFloatMult      3334019      2.81%     76.05% # Class of committed instruction (Count)
system.cpu0.commit.committedInstType_0::SimdFloatMultAcc            0      0.00%     76.05% # Class of committed instruction (Count)
system.cpu0.commit.committedInstType_0::SimdFloatSqrt            0      0.00%     76.05% # Class of committed instruction (Count)
system.cpu0.commit.committedInstType_0::SimdReduceAdd            0      0.00%     76.05% # Class of committed instruction (Count)
system.cpu0.commit.committedInstType_0::SimdReduceAlu            0      0.00%     76.05% # Class of committed instruction (Count)
system.cpu0.commit.committedInstType_0::SimdReduceCmp            0      0.00%     76.05% # Class of committed instruction (Count)
system.cpu0.commit.committedInstType_0::SimdFloatReduceAdd            0      0.00%     76.05% # Class of committed instruction (Count)
system.cpu0.commit.committedInstType_0::SimdFloatReduceCmp            0      0.00%     76.05% # Class of committed instruction (Count)
system.cpu0.commit.committedInstType_0::SimdAes            0      0.00%     76.05% # Class of committed instruction (Count)
system.cpu0.commit.committedInstType_0::SimdAesMix            0      0.00%     76.05% # Class of committed instruction (Count)
system.cpu0.commit.committedInstType_0::SimdSha1Hash            0      0.00%     76.05% # Class of committed instruction (Count)
system.cpu0.commit.committedInstType_0::SimdSha1Hash2            0      0.00%     76.05% # Class of committed instruction (Count)
system.cpu0.commit.committedInstType_0::SimdSha256Hash            0      0.00%     76.05% # Class of committed instruction (Count)
system.cpu0.commit.committedInstType_0::SimdSha256Hash2            0      0.00%     76.05% # Class of committed instruction (Count)
system.cpu0.commit.committedInstType_0::SimdShaSigma2            0      0.00%     76.05% # Class of committed instruction (Count)
system.cpu0.commit.committedInstType_0::SimdShaSigma3            0      0.00%     76.05% # Class of committed instruction (Count)
system.cpu0.commit.committedInstType_0::SimdPredAlu            0      0.00%     76.05% # Class of committed instruction (Count)
system.cpu0.commit.committedInstType_0::Matrix            0      0.00%     76.05% # Class of committed instruction (Count)
system.cpu0.commit.committedInstType_0::MatrixMov            0      0.00%     76.05% # Class of committed instruction (Count)
system.cpu0.commit.committedInstType_0::MatrixOP            0      0.00%     76.05% # Class of committed instruction (Count)
system.cpu0.commit.committedInstType_0::MemRead     15955648     13.45%     89.49% # Class of committed instruction (Count)
system.cpu0.commit.committedInstType_0::MemWrite      1461725      1.23%     90.73% # Class of committed instruction (Count)
system.cpu0.commit.committedInstType_0::FloatMemRead      8845918      7.46%     98.18% # Class of committed instruction (Count)
system.cpu0.commit.committedInstType_0::FloatMemWrite      2158060      1.82%    100.00% # Class of committed instruction (Count)
system.cpu0.commit.committedInstType_0::IprAccess            0      0.00%    100.00% # Class of committed instruction (Count)
system.cpu0.commit.committedInstType_0::InstPrefetch            0      0.00%    100.00% # Class of committed instruction (Count)
system.cpu0.commit.committedInstType_0::total    118645479                       # Class of committed instruction (Count)
system.cpu0.commit.commitEligibleSamples     12040292                       # number cycles where commit BW limit reached (Cycle)
system.cpu0.decode.idleCycles                 8129634                       # Number of cycles decode is idle (Cycle)
system.cpu0.decode.blockedCycles             75043535                       # Number of cycles decode is blocked (Cycle)
system.cpu0.decode.runCycles                 19478975                       # Number of cycles decode is running (Cycle)
system.cpu0.decode.unblockCycles              3616969                       # Number of cycles decode is unblocking (Cycle)
system.cpu0.decode.squashCycles                295143                       # Number of cycles decode is squashing (Cycle)
system.cpu0.decode.branchResolved             1787116                       # Number of times decode resolved a branch (Count)
system.cpu0.decode.branchMispred                  908                       # Number of times decode detected a branch misprediction (Count)
system.cpu0.decode.decodedInsts             166293518                       # Number of instructions handled by decode (Count)
system.cpu0.decode.squashedInsts                 4431                       # Number of squashed instructions handled by decode (Count)
system.cpu0.fetch.icacheStallCycles          12755148                       # Number of cycles fetch is stalled on an Icache miss (Cycle)
system.cpu0.fetch.insts                     122733959                       # Number of instructions fetch has processed (Count)
system.cpu0.fetch.branches                    2056525                       # Number of branches that fetch encountered (Count)
system.cpu0.fetch.predictedBranches           1905422                       # Number of branches that fetch has predicted taken (Count)
system.cpu0.fetch.cycles                     93475129                       # Number of cycles fetch has run and was not squashing or blocked (Cycle)
system.cpu0.fetch.squashCycles                 592082                       # Number of cycles fetch has spent squashing (Cycle)
system.cpu0.fetch.miscStallCycles                1095                       # Number of cycles fetch has spent waiting on interrupts, or bad addresses, or out of MSHRs (Cycle)
system.cpu0.fetch.pendingTrapStallCycles         5689                       # Number of stall cycles due to pending traps (Cycle)
system.cpu0.fetch.icacheWaitRetryStallCycles        31154                       # Number of stall cycles due to full MSHR (Cycle)
system.cpu0.fetch.cacheLines                 10696139                       # Number of cache lines fetched (Count)
system.cpu0.fetch.icacheSquashes                11100                       # Number of outstanding Icache misses that were squashed (Count)
system.cpu0.fetch.nisnDist::samples         106564256                       # Number of instructions fetched each cycle (Total) (Count)
system.cpu0.fetch.nisnDist::mean             1.682058                       # Number of instructions fetched each cycle (Total) (Count)
system.cpu0.fetch.nisnDist::stdev            3.063951                       # Number of instructions fetched each cycle (Total) (Count)
system.cpu0.fetch.nisnDist::underflows              0      0.00%      0.00% # Number of instructions fetched each cycle (Total) (Count)
system.cpu0.fetch.nisnDist::0                78403028     73.57%     73.57% # Number of instructions fetched each cycle (Total) (Count)
system.cpu0.fetch.nisnDist::1                 1927192      1.81%     75.38% # Number of instructions fetched each cycle (Total) (Count)
system.cpu0.fetch.nisnDist::2                 1514467      1.42%     76.80% # Number of instructions fetched each cycle (Total) (Count)
system.cpu0.fetch.nisnDist::3                 1977470      1.86%     78.66% # Number of instructions fetched each cycle (Total) (Count)
system.cpu0.fetch.nisnDist::4                  905004      0.85%     79.51% # Number of instructions fetched each cycle (Total) (Count)
system.cpu0.fetch.nisnDist::5                 1645884      1.54%     81.05% # Number of instructions fetched each cycle (Total) (Count)
system.cpu0.fetch.nisnDist::6                 1783362      1.67%     82.73% # Number of instructions fetched each cycle (Total) (Count)
system.cpu0.fetch.nisnDist::7                 1453684      1.36%     84.09% # Number of instructions fetched each cycle (Total) (Count)
system.cpu0.fetch.nisnDist::8                16954165     15.91%    100.00% # Number of instructions fetched each cycle (Total) (Count)
system.cpu0.fetch.nisnDist::overflows               0      0.00%    100.00% # Number of instructions fetched each cycle (Total) (Count)
system.cpu0.fetch.nisnDist::min_value               0                       # Number of instructions fetched each cycle (Total) (Count)
system.cpu0.fetch.nisnDist::max_value               8                       # Number of instructions fetched each cycle (Total) (Count)
system.cpu0.fetch.nisnDist::total           106564256                       # Number of instructions fetched each cycle (Total) (Count)
system.cpu0.fetch.branchRate                 0.019107                       # Number of branch fetches per cycle (Ratio)
system.cpu0.fetch.rate                       1.140308                       # Number of inst fetches per cycle ((Count/Cycle))
system.cpu0.iew.idleCycles                          0                       # Number of cycles IEW is idle (Cycle)
system.cpu0.iew.squashCycles                   295143                       # Number of cycles IEW is squashing (Cycle)
system.cpu0.iew.blockCycles                   8553672                       # Number of cycles IEW is blocking (Cycle)
system.cpu0.iew.unblockCycles                 9691982                       # Number of cycles IEW is unblocking (Cycle)
system.cpu0.iew.dispatchedInsts             163010276                       # Number of instructions dispatched to IQ (Count)
system.cpu0.iew.dispSquashedInsts                1155                       # Number of squashed instructions skipped by dispatch (Count)
system.cpu0.iew.dispLoadInsts                33750975                       # Number of dispatched load instructions (Count)
system.cpu0.iew.dispStoreInsts                4750453                       # Number of dispatched store instructions (Count)
system.cpu0.iew.dispNonSpecInsts                  310                       # Number of dispatched non-speculative instructions (Count)
system.cpu0.iew.iqFullEvents                   101592                       # Number of times the IQ has become full, causing a stall (Count)
system.cpu0.iew.lsqFullEvents                 9502937                       # Number of times the LSQ has become full, causing a stall (Count)
system.cpu0.iew.memOrderViolationEvents          2516                       # Number of memory order violations (Count)
system.cpu0.iew.predictedTakenIncorrect         11912                       # Number of branches that were predicted taken incorrectly (Count)
system.cpu0.iew.predictedNotTakenIncorrect         4093                       # Number of branches that were predicted not taken incorrectly (Count)
system.cpu0.iew.branchMispredicts               16005                       # Number of branch mispredicts detected at execute (Count)
system.cpu0.iew.instsToCommit               155367165                       # Cumulative count of insts sent to commit (Count)
system.cpu0.iew.writebackCount              154261337                       # Cumulative count of insts written-back (Count)
system.cpu0.iew.producerInst                124748797                       # Number of instructions producing a value (Count)
system.cpu0.iew.consumerInst                184856286                       # Number of instructions consuming a value (Count)
system.cpu0.iew.wbRate                       1.433225                       # Insts written-back per cycle ((Count/Cycle))
system.cpu0.iew.wbFanout                     0.674842                       # Average fanout of values written-back ((Count/Count))
system.cpu0.interrupts.clk_domain.clock          8000                       # Clock period in ticks (Tick)
system.cpu0.lsq0.forwLoads                    8361118                       # Number of loads that had data forwarded from stores (Count)
system.cpu0.lsq0.squashedLoads                8949409                       # Number of loads squashed (Count)
system.cpu0.lsq0.ignoredResponses                 401                       # Number of memory responses ignored because the instruction is squashed (Count)
system.cpu0.lsq0.memOrderViolation               2516                       # Number of memory ordering violations (Count)
system.cpu0.lsq0.squashedStores               1130668                       # Number of stores squashed (Count)
system.cpu0.lsq0.rescheduledLoads              310206                       # Number of loads that were rescheduled (Count)
system.cpu0.lsq0.blockedByCache                   891                       # Number of times an access to memory failed due to the cache being blocked (Count)
system.cpu0.lsq0.loadToUse::samples          24801566                       # Distribution of cycle latency between the first time a load is issued and its completion (Unspecified)
system.cpu0.lsq0.loadToUse::mean             8.758814                       # Distribution of cycle latency between the first time a load is issued and its completion (Unspecified)
system.cpu0.lsq0.loadToUse::stdev           55.148791                       # Distribution of cycle latency between the first time a load is issued and its completion (Unspecified)
system.cpu0.lsq0.loadToUse::0-9              22855194     92.15%     92.15% # Distribution of cycle latency between the first time a load is issued and its completion (Unspecified)
system.cpu0.lsq0.loadToUse::10-19               14303      0.06%     92.21% # Distribution of cycle latency between the first time a load is issued and its completion (Unspecified)
system.cpu0.lsq0.loadToUse::20-29              448401      1.81%     94.02% # Distribution of cycle latency between the first time a load is issued and its completion (Unspecified)
system.cpu0.lsq0.loadToUse::30-39              511379      2.06%     96.08% # Distribution of cycle latency between the first time a load is issued and its completion (Unspecified)
system.cpu0.lsq0.loadToUse::40-49              303781      1.22%     97.30% # Distribution of cycle latency between the first time a load is issued and its completion (Unspecified)
system.cpu0.lsq0.loadToUse::50-59              173525      0.70%     98.00% # Distribution of cycle latency between the first time a load is issued and its completion (Unspecified)
system.cpu0.lsq0.loadToUse::60-69               89901      0.36%     98.37% # Distribution of cycle latency between the first time a load is issued and its completion (Unspecified)
system.cpu0.lsq0.loadToUse::70-79               47231      0.19%     98.56% # Distribution of cycle latency between the first time a load is issued and its completion (Unspecified)
system.cpu0.lsq0.loadToUse::80-89               26287      0.11%     98.66% # Distribution of cycle latency between the first time a load is issued and its completion (Unspecified)
system.cpu0.lsq0.loadToUse::90-99               16608      0.07%     98.73% # Distribution of cycle latency between the first time a load is issued and its completion (Unspecified)
system.cpu0.lsq0.loadToUse::100-109             12992      0.05%     98.78% # Distribution of cycle latency between the first time a load is issued and its completion (Unspecified)
system.cpu0.lsq0.loadToUse::110-119             12493      0.05%     98.83% # Distribution of cycle latency between the first time a load is issued and its completion (Unspecified)
system.cpu0.lsq0.loadToUse::120-129             17612      0.07%     98.90% # Distribution of cycle latency between the first time a load is issued and its completion (Unspecified)
system.cpu0.lsq0.loadToUse::130-139             33145      0.13%     99.04% # Distribution of cycle latency between the first time a load is issued and its completion (Unspecified)
system.cpu0.lsq0.loadToUse::140-149             39416      0.16%     99.20% # Distribution of cycle latency between the first time a load is issued and its completion (Unspecified)
system.cpu0.lsq0.loadToUse::150-159             34807      0.14%     99.34% # Distribution of cycle latency between the first time a load is issued and its completion (Unspecified)
system.cpu0.lsq0.loadToUse::160-169             30926      0.12%     99.46% # Distribution of cycle latency between the first time a load is issued and its completion (Unspecified)
system.cpu0.lsq0.loadToUse::170-179             24365      0.10%     99.56% # Distribution of cycle latency between the first time a load is issued and its completion (Unspecified)
system.cpu0.lsq0.loadToUse::180-189             18045      0.07%     99.63% # Distribution of cycle latency between the first time a load is issued and its completion (Unspecified)
system.cpu0.lsq0.loadToUse::190-199             13186      0.05%     99.69% # Distribution of cycle latency between the first time a load is issued and its completion (Unspecified)
system.cpu0.lsq0.loadToUse::200-209              9049      0.04%     99.72% # Distribution of cycle latency between the first time a load is issued and its completion (Unspecified)
system.cpu0.lsq0.loadToUse::210-219              6043      0.02%     99.75% # Distribution of cycle latency between the first time a load is issued and its completion (Unspecified)
system.cpu0.lsq0.loadToUse::220-229              4228      0.02%     99.76% # Distribution of cycle latency between the first time a load is issued and its completion (Unspecified)
system.cpu0.lsq0.loadToUse::230-239              3339      0.01%     99.78% # Distribution of cycle latency between the first time a load is issued and its completion (Unspecified)
system.cpu0.lsq0.loadToUse::240-249              3059      0.01%     99.79% # Distribution of cycle latency between the first time a load is issued and its completion (Unspecified)
system.cpu0.lsq0.loadToUse::250-259              2739      0.01%     99.80% # Distribution of cycle latency between the first time a load is issued and its completion (Unspecified)
system.cpu0.lsq0.loadToUse::260-269              2614      0.01%     99.81% # Distribution of cycle latency between the first time a load is issued and its completion (Unspecified)
system.cpu0.lsq0.loadToUse::270-279              2401      0.01%     99.82% # Distribution of cycle latency between the first time a load is issued and its completion (Unspecified)
system.cpu0.lsq0.loadToUse::280-289              2252      0.01%     99.83% # Distribution of cycle latency between the first time a load is issued and its completion (Unspecified)
system.cpu0.lsq0.loadToUse::290-299              2099      0.01%     99.84% # Distribution of cycle latency between the first time a load is issued and its completion (Unspecified)
system.cpu0.lsq0.loadToUse::overflows           40146      0.16%    100.00% # Distribution of cycle latency between the first time a load is issued and its completion (Unspecified)
system.cpu0.lsq0.loadToUse::min_value               2                       # Distribution of cycle latency between the first time a load is issued and its completion (Unspecified)
system.cpu0.lsq0.loadToUse::max_value            2719                       # Distribution of cycle latency between the first time a load is issued and its completion (Unspecified)
system.cpu0.lsq0.loadToUse::total            24801566                       # Distribution of cycle latency between the first time a load is issued and its completion (Unspecified)
system.cpu0.mmu.dtb.rdAccesses               33356883                       # TLB accesses on read requests (Count)
system.cpu0.mmu.dtb.wrAccesses                4078805                       # TLB accesses on write requests (Count)
system.cpu0.mmu.dtb.rdMisses                     1946                       # TLB misses on read requests (Count)
system.cpu0.mmu.dtb.wrMisses                     1807                       # TLB misses on write requests (Count)
system.cpu0.mmu.dtb.walker.power_state.pwrStateResidencyTicks::UNDEFINED  63931191000                       # Cumulative time (in ticks) in various power states (Tick)
system.cpu0.mmu.itb.rdAccesses                      0                       # TLB accesses on read requests (Count)
system.cpu0.mmu.itb.wrAccesses               10697027                       # TLB accesses on write requests (Count)
system.cpu0.mmu.itb.rdMisses                        0                       # TLB misses on read requests (Count)
system.cpu0.mmu.itb.wrMisses                     1258                       # TLB misses on write requests (Count)
system.cpu0.mmu.itb.walker.power_state.pwrStateResidencyTicks::UNDEFINED  63931191000                       # Cumulative time (in ticks) in various power states (Tick)
system.cpu0.power_state.pwrStateResidencyTicks::ON  63931191000                       # Cumulative time (in ticks) in various power states (Tick)
system.cpu0.rename.squashCycles                295143                       # Number of cycles rename is squashing (Cycle)
system.cpu0.rename.idleCycles                 9644951                       # Number of cycles rename is idle (Cycle)
system.cpu0.rename.blockCycles               19328644                       # Number of cycles rename is blocking (Cycle)
system.cpu0.rename.serializeStallCycles          3020                       # count of cycles rename stalled for serializing inst (Cycle)
system.cpu0.rename.runCycles                 21451711                       # Number of cycles rename is running (Cycle)
system.cpu0.rename.unblockCycles             55840787                       # Number of cycles rename is unblocking (Cycle)
system.cpu0.rename.renamedInsts             163447717                       # Number of instructions processed by rename (Count)
system.cpu0.rename.ROBFullEvents                74964                       # Number of times rename has blocked due to ROB full (Count)
system.cpu0.rename.IQFullEvents               1875461                       # Number of times rename has blocked due to IQ full (Count)
system.cpu0.rename.LQFullEvents              50883077                       # Number of times rename has blocked due to LQ full (Count)
system.cpu0.rename.SQFullEvents               2915592                       # Number of times rename has blocked due to SQ full (Count)
system.cpu0.rename.renamedOperands          290108807                       # Number of destination operands rename has renamed (Count)
system.cpu0.rename.lookups                  464946891                       # Number of register rename lookups that rename has made (Count)
system.cpu0.rename.intLookups               160792032                       # Number of integer rename lookups (Count)
system.cpu0.rename.fpLookups                 62267503                       # Number of floating rename lookups (Count)
system.cpu0.rename.committedMaps            209335450                       # Number of HB maps that are committed (Count)
system.cpu0.rename.undoneMaps                80773357                       # Number of HB maps that are undone due to squashing (Count)
system.cpu0.rename.serializing                     81                       # count of serializing insts renamed (Count)
system.cpu0.rename.tempSerializing                 67                       # count of temporary serializing insts renamed (Count)
system.cpu0.rename.skidInsts                 20859660                       # count of insts added to the skid buffer (Count)
system.cpu0.rob.reads                       248145377                       # The number of ROB reads (Count)
system.cpu0.rob.writes                      331453528                       # The number of ROB writes (Count)
system.cpu0.thread_0.numInsts                80717107                       # Number of Instructions committed (Count)
system.cpu0.thread_0.numOps                 118645479                       # Number of Ops committed (Count)
system.cpu0.thread_0.numMemRefs                     0                       # Number of Memory References (Count)
system.cpu0.workload.numSyscalls                   42                       # Number of system calls (Count)
system.cpu1.numCycles                         5340080                       # Number of cpu cycles simulated (Cycle)
system.cpu1.numWorkItemsStarted                     0                       # Number of work items this cpu started (Count)
system.cpu1.numWorkItemsCompleted                   0                       # Number of work items this cpu completed (Count)
system.cpu1.instsAdded                       11165961                       # Number of instructions added to the IQ (excludes non-spec) (Count)
system.cpu1.nonSpecInstsAdded                     462                       # Number of non-speculative instructions added to the IQ (Count)
system.cpu1.instsIssued                      10748658                       # Number of instructions issued (Count)
system.cpu1.squashedInstsIssued                  1742                       # Number of squashed instructions issued (Count)
system.cpu1.squashedInstsExamined             1086019                       # Number of squashed instructions iterated over during squash; mainly for profiling (Count)
system.cpu1.squashedOperandsExamined          2670384                       # Number of squashed operands that are examined and possibly removed from graph (Count)
system.cpu1.squashedNonSpecRemoved                192                       # Number of squashed non-spec instructions that were removed (Count)
system.cpu1.numIssuedDist::samples            4951743                       # Number of insts issued each cycle (Count)
system.cpu1.numIssuedDist::mean              2.170682                       # Number of insts issued each cycle (Count)
system.cpu1.numIssuedDist::stdev             2.473681                       # Number of insts issued each cycle (Count)
system.cpu1.numIssuedDist::underflows               0      0.00%      0.00% # Number of insts issued each cycle (Count)
system.cpu1.numIssuedDist::0                  2053580     41.47%     41.47% # Number of insts issued each cycle (Count)
system.cpu1.numIssuedDist::1                   570496     11.52%     52.99% # Number of insts issued each cycle (Count)
system.cpu1.numIssuedDist::2                   469486      9.48%     62.47% # Number of insts issued each cycle (Count)
system.cpu1.numIssuedDist::3                   439707      8.88%     71.35% # Number of insts issued each cycle (Count)
system.cpu1.numIssuedDist::4                   449956      9.09%     80.44% # Number of insts issued each cycle (Count)
system.cpu1.numIssuedDist::5                   329304      6.65%     87.09% # Number of insts issued each cycle (Count)
system.cpu1.numIssuedDist::6                   242262      4.89%     91.98% # Number of insts issued each cycle (Count)
system.cpu1.numIssuedDist::7                   155463      3.14%     95.12% # Number of insts issued each cycle (Count)
system.cpu1.numIssuedDist::8                   241489      4.88%    100.00% # Number of insts issued each cycle (Count)
system.cpu1.numIssuedDist::overflows                0      0.00%    100.00% # Number of insts issued each cycle (Count)
system.cpu1.numIssuedDist::min_value                0                       # Number of insts issued each cycle (Count)
system.cpu1.numIssuedDist::max_value                8                       # Number of insts issued each cycle (Count)
system.cpu1.numIssuedDist::total              4951743                       # Number of insts issued each cycle (Count)
system.cpu1.statFuBusy::No_OpClass                  0      0.00%      0.00% # attempts to use FU when none available (Count)
system.cpu1.statFuBusy::IntAlu                  40309     39.61%     39.61% # attempts to use FU when none available (Count)
system.cpu1.statFuBusy::IntMult                     0      0.00%     39.61% # attempts to use FU when none available (Count)
system.cpu1.statFuBusy::IntDiv                      0      0.00%     39.61% # attempts to use FU when none available (Count)
system.cpu1.statFuBusy::FloatAdd                 2020      1.99%     41.60% # attempts to use FU when none available (Count)
system.cpu1.statFuBusy::FloatCmp                    0      0.00%     41.60% # attempts to use FU when none available (Count)
system.cpu1.statFuBusy::FloatCvt                    0      0.00%     41.60% # attempts to use FU when none available (Count)
system.cpu1.statFuBusy::FloatMult                   0      0.00%     41.60% # attempts to use FU when none available (Count)
system.cpu1.statFuBusy::FloatMultAcc                0      0.00%     41.60% # attempts to use FU when none available (Count)
system.cpu1.statFuBusy::FloatDiv                    0      0.00%     41.60% # attempts to use FU when none available (Count)
system.cpu1.statFuBusy::FloatMisc                   0      0.00%     41.60% # attempts to use FU when none available (Count)
system.cpu1.statFuBusy::FloatSqrt                   0      0.00%     41.60% # attempts to use FU when none available (Count)
system.cpu1.statFuBusy::SimdAdd                     3      0.00%     41.60% # attempts to use FU when none available (Count)
system.cpu1.statFuBusy::SimdAddAcc                  0      0.00%     41.60% # attempts to use FU when none available (Count)
system.cpu1.statFuBusy::SimdAlu                   314      0.31%     41.91% # attempts to use FU when none available (Count)
system.cpu1.statFuBusy::SimdCmp                     0      0.00%     41.91% # attempts to use FU when none available (Count)
system.cpu1.statFuBusy::SimdCvt                   194      0.19%     42.10% # attempts to use FU when none available (Count)
system.cpu1.statFuBusy::SimdMisc                    0      0.00%     42.10% # attempts to use FU when none available (Count)
system.cpu1.statFuBusy::SimdMult                    0      0.00%     42.10% # attempts to use FU when none available (Count)
system.cpu1.statFuBusy::SimdMultAcc                 0      0.00%     42.10% # attempts to use FU when none available (Count)
system.cpu1.statFuBusy::SimdShift                 124      0.12%     42.22% # attempts to use FU when none available (Count)
system.cpu1.statFuBusy::SimdShiftAcc                0      0.00%     42.22% # attempts to use FU when none available (Count)
system.cpu1.statFuBusy::SimdDiv                     0      0.00%     42.22% # attempts to use FU when none available (Count)
system.cpu1.statFuBusy::SimdSqrt                    0      0.00%     42.22% # attempts to use FU when none available (Count)
system.cpu1.statFuBusy::SimdFloatAdd                0      0.00%     42.22% # attempts to use FU when none available (Count)
system.cpu1.statFuBusy::SimdFloatAlu                0      0.00%     42.22% # attempts to use FU when none available (Count)
system.cpu1.statFuBusy::SimdFloatCmp                0      0.00%     42.22% # attempts to use FU when none available (Count)
system.cpu1.statFuBusy::SimdFloatCvt                1      0.00%     42.22% # attempts to use FU when none available (Count)
system.cpu1.statFuBusy::SimdFloatDiv                0      0.00%     42.22% # attempts to use FU when none available (Count)
system.cpu1.statFuBusy::SimdFloatMisc               0      0.00%     42.22% # attempts to use FU when none available (Count)
system.cpu1.statFuBusy::SimdFloatMult               1      0.00%     42.22% # attempts to use FU when none available (Count)
system.cpu1.statFuBusy::SimdFloatMultAcc            0      0.00%     42.22% # attempts to use FU when none available (Count)
system.cpu1.statFuBusy::SimdFloatSqrt               0      0.00%     42.22% # attempts to use FU when none available (Count)
system.cpu1.statFuBusy::SimdReduceAdd               0      0.00%     42.22% # attempts to use FU when none available (Count)
system.cpu1.statFuBusy::SimdReduceAlu               0      0.00%     42.22% # attempts to use FU when none available (Count)
system.cpu1.statFuBusy::SimdReduceCmp               0      0.00%     42.22% # attempts to use FU when none available (Count)
system.cpu1.statFuBusy::SimdFloatReduceAdd            0      0.00%     42.22% # attempts to use FU when none available (Count)
system.cpu1.statFuBusy::SimdFloatReduceCmp            0      0.00%     42.22% # attempts to use FU when none available (Count)
system.cpu1.statFuBusy::SimdAes                     0      0.00%     42.22% # attempts to use FU when none available (Count)
system.cpu1.statFuBusy::SimdAesMix                  0      0.00%     42.22% # attempts to use FU when none available (Count)
system.cpu1.statFuBusy::SimdSha1Hash                0      0.00%     42.22% # attempts to use FU when none available (Count)
system.cpu1.statFuBusy::SimdSha1Hash2               0      0.00%     42.22% # attempts to use FU when none available (Count)
system.cpu1.statFuBusy::SimdSha256Hash              0      0.00%     42.22% # attempts to use FU when none available (Count)
system.cpu1.statFuBusy::SimdSha256Hash2             0      0.00%     42.22% # attempts to use FU when none available (Count)
system.cpu1.statFuBusy::SimdShaSigma2               0      0.00%     42.22% # attempts to use FU when none available (Count)
system.cpu1.statFuBusy::SimdShaSigma3               0      0.00%     42.22% # attempts to use FU when none available (Count)
system.cpu1.statFuBusy::SimdPredAlu                 0      0.00%     42.22% # attempts to use FU when none available (Count)
system.cpu1.statFuBusy::Matrix                      0      0.00%     42.22% # attempts to use FU when none available (Count)
system.cpu1.statFuBusy::MatrixMov                   0      0.00%     42.22% # attempts to use FU when none available (Count)
system.cpu1.statFuBusy::MatrixOP                    0      0.00%     42.22% # attempts to use FU when none available (Count)
system.cpu1.statFuBusy::MemRead                 28885     28.39%     70.61% # attempts to use FU when none available (Count)
system.cpu1.statFuBusy::MemWrite                10627     10.44%     81.06% # attempts to use FU when none available (Count)
system.cpu1.statFuBusy::FloatMemRead            19024     18.70%     99.75% # attempts to use FU when none available (Count)
system.cpu1.statFuBusy::FloatMemWrite             253      0.25%    100.00% # attempts to use FU when none available (Count)
system.cpu1.statFuBusy::IprAccess                   0      0.00%    100.00% # attempts to use FU when none available (Count)
system.cpu1.statFuBusy::InstPrefetch                0      0.00%    100.00% # attempts to use FU when none available (Count)
system.cpu1.statIssuedInstType_0::No_OpClass        38291      0.36%      0.36% # Number of instructions issued per FU type, per thread (Count)
system.cpu1.statIssuedInstType_0::IntAlu      6154900     57.26%     57.62% # Number of instructions issued per FU type, per thread (Count)
system.cpu1.statIssuedInstType_0::IntMult         4157      0.04%     57.66% # Number of instructions issued per FU type, per thread (Count)
system.cpu1.statIssuedInstType_0::IntDiv        36926      0.34%     58.00% # Number of instructions issued per FU type, per thread (Count)
system.cpu1.statIssuedInstType_0::FloatAdd       785492      7.31%     65.31% # Number of instructions issued per FU type, per thread (Count)
system.cpu1.statIssuedInstType_0::FloatCmp            0      0.00%     65.31% # Number of instructions issued per FU type, per thread (Count)
system.cpu1.statIssuedInstType_0::FloatCvt          172      0.00%     65.31% # Number of instructions issued per FU type, per thread (Count)
system.cpu1.statIssuedInstType_0::FloatMult            0      0.00%     65.31% # Number of instructions issued per FU type, per thread (Count)
system.cpu1.statIssuedInstType_0::FloatMultAcc            0      0.00%     65.31% # Number of instructions issued per FU type, per thread (Count)
system.cpu1.statIssuedInstType_0::FloatDiv            0      0.00%     65.31% # Number of instructions issued per FU type, per thread (Count)
system.cpu1.statIssuedInstType_0::FloatMisc            0      0.00%     65.31% # Number of instructions issued per FU type, per thread (Count)
system.cpu1.statIssuedInstType_0::FloatSqrt            0      0.00%     65.31% # Number of instructions issued per FU type, per thread (Count)
system.cpu1.statIssuedInstType_0::SimdAdd         6168      0.06%     65.37% # Number of instructions issued per FU type, per thread (Count)
system.cpu1.statIssuedInstType_0::SimdAddAcc            0      0.00%     65.37% # Number of instructions issued per FU type, per thread (Count)
system.cpu1.statIssuedInstType_0::SimdAlu       316486      2.94%     68.31% # Number of instructions issued per FU type, per thread (Count)
system.cpu1.statIssuedInstType_0::SimdCmp            0      0.00%     68.31% # Number of instructions issued per FU type, per thread (Count)
system.cpu1.statIssuedInstType_0::SimdCvt        13172      0.12%     68.43% # Number of instructions issued per FU type, per thread (Count)
system.cpu1.statIssuedInstType_0::SimdMisc        66348      0.62%     69.05% # Number of instructions issued per FU type, per thread (Count)
system.cpu1.statIssuedInstType_0::SimdMult            0      0.00%     69.05% # Number of instructions issued per FU type, per thread (Count)
system.cpu1.statIssuedInstType_0::SimdMultAcc            0      0.00%     69.05% # Number of instructions issued per FU type, per thread (Count)
system.cpu1.statIssuedInstType_0::SimdShift         1200      0.01%     69.06% # Number of instructions issued per FU type, per thread (Count)
system.cpu1.statIssuedInstType_0::SimdShiftAcc            0      0.00%     69.06% # Number of instructions issued per FU type, per thread (Count)
system.cpu1.statIssuedInstType_0::SimdDiv            0      0.00%     69.06% # Number of instructions issued per FU type, per thread (Count)
system.cpu1.statIssuedInstType_0::SimdSqrt            0      0.00%     69.06% # Number of instructions issued per FU type, per thread (Count)
system.cpu1.statIssuedInstType_0::SimdFloatAdd       351184      3.27%     72.33% # Number of instructions issued per FU type, per thread (Count)
system.cpu1.statIssuedInstType_0::SimdFloatAlu            0      0.00%     72.33% # Number of instructions issued per FU type, per thread (Count)
system.cpu1.statIssuedInstType_0::SimdFloatCmp            0      0.00%     72.33% # Number of instructions issued per FU type, per thread (Count)
system.cpu1.statIssuedInstType_0::SimdFloatCvt        95999      0.89%     73.22% # Number of instructions issued per FU type, per thread (Count)
system.cpu1.statIssuedInstType_0::SimdFloatDiv        22534      0.21%     73.43% # Number of instructions issued per FU type, per thread (Count)
system.cpu1.statIssuedInstType_0::SimdFloatMisc            0      0.00%     73.43% # Number of instructions issued per FU type, per thread (Count)
system.cpu1.statIssuedInstType_0::SimdFloatMult       320193      2.98%     76.41% # Number of instructions issued per FU type, per thread (Count)
system.cpu1.statIssuedInstType_0::SimdFloatMultAcc            0      0.00%     76.41% # Number of instructions issued per FU type, per thread (Count)
system.cpu1.statIssuedInstType_0::SimdFloatSqrt            0      0.00%     76.41% # Number of instructions issued per FU type, per thread (Count)
system.cpu1.statIssuedInstType_0::SimdReduceAdd            0      0.00%     76.41% # Number of instructions issued per FU type, per thread (Count)
system.cpu1.statIssuedInstType_0::SimdReduceAlu            0      0.00%     76.41% # Number of instructions issued per FU type, per thread (Count)
system.cpu1.statIssuedInstType_0::SimdReduceCmp            0      0.00%     76.41% # Number of instructions issued per FU type, per thread (Count)
system.cpu1.statIssuedInstType_0::SimdFloatReduceAdd            0      0.00%     76.41% # Number of instructions issued per FU type, per thread (Count)
system.cpu1.statIssuedInstType_0::SimdFloatReduceCmp            0      0.00%     76.41% # Number of instructions issued per FU type, per thread (Count)
system.cpu1.statIssuedInstType_0::SimdAes            0      0.00%     76.41% # Number of instructions issued per FU type, per thread (Count)
system.cpu1.statIssuedInstType_0::SimdAesMix            0      0.00%     76.41% # Number of instructions issued per FU type, per thread (Count)
system.cpu1.statIssuedInstType_0::SimdSha1Hash            0      0.00%     76.41% # Number of instructions issued per FU type, per thread (Count)
system.cpu1.statIssuedInstType_0::SimdSha1Hash2            0      0.00%     76.41% # Number of instructions issued per FU type, per thread (Count)
system.cpu1.statIssuedInstType_0::SimdSha256Hash            0      0.00%     76.41% # Number of instructions issued per FU type, per thread (Count)
system.cpu1.statIssuedInstType_0::SimdSha256Hash2            0      0.00%     76.41% # Number of instructions issued per FU type, per thread (Count)
system.cpu1.statIssuedInstType_0::SimdShaSigma2            0      0.00%     76.41% # Number of instructions issued per FU type, per thread (Count)
system.cpu1.statIssuedInstType_0::SimdShaSigma3            0      0.00%     76.41% # Number of instructions issued per FU type, per thread (Count)
system.cpu1.statIssuedInstType_0::SimdPredAlu            0      0.00%     76.41% # Number of instructions issued per FU type, per thread (Count)
system.cpu1.statIssuedInstType_0::Matrix            0      0.00%     76.41% # Number of instructions issued per FU type, per thread (Count)
system.cpu1.statIssuedInstType_0::MatrixMov            0      0.00%     76.41% # Number of instructions issued per FU type, per thread (Count)
system.cpu1.statIssuedInstType_0::MatrixOP            0      0.00%     76.41% # Number of instructions issued per FU type, per thread (Count)
system.cpu1.statIssuedInstType_0::MemRead      1151503     10.71%     87.12% # Number of instructions issued per FU type, per thread (Count)
system.cpu1.statIssuedInstType_0::MemWrite       509306      4.74%     91.86% # Number of instructions issued per FU type, per thread (Count)
system.cpu1.statIssuedInstType_0::FloatMemRead       710502      6.61%     98.47% # Number of instructions issued per FU type, per thread (Count)
system.cpu1.statIssuedInstType_0::FloatMemWrite       164125      1.53%    100.00% # Number of instructions issued per FU type, per thread (Count)
system.cpu1.statIssuedInstType_0::IprAccess            0      0.00%    100.00% # Number of instructions issued per FU type, per thread (Count)
system.cpu1.statIssuedInstType_0::InstPrefetch            0      0.00%    100.00% # Number of instructions issued per FU type, per thread (Count)
system.cpu1.statIssuedInstType_0::total      10748658                       # Number of instructions issued per FU type, per thread (Count)
system.cpu1.issueRate                        2.012827                       # Inst issue rate ((Count/Cycle))
system.cpu1.fuBusy                             101755                       # FU busy when requested (Count)
system.cpu1.fuBusyRate                       0.009467                       # FU busy rate (busy events/executed inst) ((Count/Count))
system.cpu1.intInstQueueReads                20191425                       # Number of integer instruction queue reads (Count)
system.cpu1.intInstQueueWrites                9013142                       # Number of integer instruction queue writes (Count)
system.cpu1.intInstQueueWakeupAccesses        7506922                       # Number of integer instruction queue wakeup accesses (Count)
system.cpu1.fpInstQueueReads                  6361131                       # Number of floating instruction queue reads (Count)
[...]
system.ruby.network.data_traffic_distribution.n3.n7            0                       (Unspecified)
system.ruby.network.data_traffic_distribution.n3.n8            0                       (Unspecified)
system.ruby.network.data_traffic_distribution.n3.n9            0                       (Unspecified)
system.ruby.network.data_traffic_distribution.n4.n0       278330                       (Unspecified)
system.ruby.network.data_traffic_distribution.n4.n1            0                       (Unspecified)
system.ruby.network.data_traffic_distribution.n4.n10            0                       (Unspecified)
system.ruby.network.data_traffic_distribution.n4.n11            0                       (Unspecified)
system.ruby.network.data_traffic_distribution.n4.n12            0                       (Unspecified)
system.ruby.network.data_traffic_distribution.n4.n13            0                       (Unspecified)
system.ruby.network.data_traffic_distribution.n4.n14            0                       (Unspecified)
system.ruby.network.data_traffic_distribution.n4.n15            0                       (Unspecified)
system.ruby.network.data_traffic_distribution.n4.n2            0                       (Unspecified)
system.ruby.network.data_traffic_distribution.n4.n3            0                       (Unspecified)
system.ruby.network.data_traffic_distribution.n4.n4            0                       (Unspecified)
system.ruby.network.data_traffic_distribution.n4.n5            0                       (Unspecified)
system.ruby.network.data_traffic_distribution.n4.n6            0                       (Unspecified)
system.ruby.network.data_traffic_distribution.n4.n7            0                       (Unspecified)
system.ruby.network.data_traffic_distribution.n4.n8            0                       (Unspecified)
system.ruby.network.data_traffic_distribution.n4.n9            0                       (Unspecified)
system.ruby.network.data_traffic_distribution.n5.n0       236101                       (Unspecified)
system.ruby.network.data_traffic_distribution.n5.n1            0                       (Unspecified)
system.ruby.network.data_traffic_distribution.n5.n10            0                       (Unspecified)
system.ruby.network.data_traffic_distribution.n5.n11            0                       (Unspecified)
system.ruby.network.data_traffic_distribution.n5.n12            0                       (Unspecified)
system.ruby.network.data_traffic_distribution.n5.n13            0                       (Unspecified)
system.ruby.network.data_traffic_distribution.n5.n14            0                       (Unspecified)
system.ruby.network.data_traffic_distribution.n5.n15            0                       (Unspecified)
system.ruby.network.data_traffic_distribution.n5.n2            0                       (Unspecified)
system.ruby.network.data_traffic_distribution.n5.n3            0                       (Unspecified)
system.ruby.network.data_traffic_distribution.n5.n4            0                       (Unspecified)
system.ruby.network.data_traffic_distribution.n5.n5            0                       (Unspecified)
system.ruby.network.data_traffic_distribution.n5.n6            0                       (Unspecified)
system.ruby.network.data_traffic_distribution.n5.n7            0                       (Unspecified)
system.ruby.network.data_traffic_distribution.n5.n8            0                       (Unspecified)
system.ruby.network.data_traffic_distribution.n5.n9            0                       (Unspecified)
system.ruby.network.data_traffic_distribution.n6.n0       229509                       (Unspecified)
system.ruby.network.data_traffic_distribution.n6.n1            0                       (Unspecified)
system.ruby.network.data_traffic_distribution.n6.n10            0                       (Unspecified)
system.ruby.network.data_traffic_distribution.n6.n11            0                       (Unspecified)
system.ruby.network.data_traffic_distribution.n6.n12            0                       (Unspecified)
system.ruby.network.data_traffic_distribution.n6.n13            0                       (Unspecified)
system.ruby.network.data_traffic_distribution.n6.n14            0                       (Unspecified)
system.ruby.network.data_traffic_distribution.n6.n15            0                       (Unspecified)
system.ruby.network.data_traffic_distribution.n6.n2            0                       (Unspecified)
system.ruby.network.data_traffic_distribution.n6.n3            0                       (Unspecified)
system.ruby.network.data_traffic_distribution.n6.n4            0                       (Unspecified)
system.ruby.network.data_traffic_distribution.n6.n5            0                       (Unspecified)
system.ruby.network.data_traffic_distribution.n6.n6            0                       (Unspecified)
system.ruby.network.data_traffic_distribution.n6.n7            0                       (Unspecified)
system.ruby.network.data_traffic_distribution.n6.n8            0                       (Unspecified)
system.ruby.network.data_traffic_distribution.n6.n9            0                       (Unspecified)
system.ruby.network.data_traffic_distribution.n7.n0       228564                       (Unspecified)
system.ruby.network.data_traffic_distribution.n7.n1            0                       (Unspecified)
system.ruby.network.data_traffic_distribution.n7.n10            0                       (Unspecified)
system.ruby.network.data_traffic_distribution.n7.n11            0                       (Unspecified)
system.ruby.network.data_traffic_distribution.n7.n12            0                       (Unspecified)
system.ruby.network.data_traffic_distribution.n7.n13            0                       (Unspecified)
system.ruby.network.data_traffic_distribution.n7.n14            0                       (Unspecified)
system.ruby.network.data_traffic_distribution.n7.n15            0                       (Unspecified)
system.ruby.network.data_traffic_distribution.n7.n2            0                       (Unspecified)
system.ruby.network.data_traffic_distribution.n7.n3            0                       (Unspecified)
system.ruby.network.data_traffic_distribution.n7.n4            0                       (Unspecified)
system.ruby.network.data_traffic_distribution.n7.n5            0                       (Unspecified)
system.ruby.network.data_traffic_distribution.n7.n6            0                       (Unspecified)
system.ruby.network.data_traffic_distribution.n7.n7            0                       (Unspecified)
system.ruby.network.data_traffic_distribution.n7.n8            0                       (Unspecified)
system.ruby.network.data_traffic_distribution.n7.n9            0                       (Unspecified)
system.ruby.network.data_traffic_distribution.n8.n0       275373                       (Unspecified)
system.ruby.network.data_traffic_distribution.n8.n1            0                       (Unspecified)
system.ruby.network.data_traffic_distribution.n8.n10            0                       (Unspecified)
system.ruby.network.data_traffic_distribution.n8.n11            0                       (Unspecified)
system.ruby.network.data_traffic_distribution.n8.n12            0                       (Unspecified)
system.ruby.network.data_traffic_distribution.n8.n13            0                       (Unspecified)
system.ruby.network.data_traffic_distribution.n8.n14            0                       (Unspecified)
system.ruby.network.data_traffic_distribution.n8.n15            0                       (Unspecified)
system.ruby.network.data_traffic_distribution.n8.n2            0                       (Unspecified)
system.ruby.network.data_traffic_distribution.n8.n3            0                       (Unspecified)
system.ruby.network.data_traffic_distribution.n8.n4            0                       (Unspecified)
system.ruby.network.data_traffic_distribution.n8.n5            0                       (Unspecified)
system.ruby.network.data_traffic_distribution.n8.n6            0                       (Unspecified)
system.ruby.network.data_traffic_distribution.n8.n7            0                       (Unspecified)
system.ruby.network.data_traffic_distribution.n8.n8            0                       (Unspecified)
system.ruby.network.data_traffic_distribution.n8.n9            0                       (Unspecified)
system.ruby.network.data_traffic_distribution.n9.n0       236964                       (Unspecified)
system.ruby.network.data_traffic_distribution.n9.n1            0                       (Unspecified)
system.ruby.network.data_traffic_distribution.n9.n10            0                       (Unspecified)
system.ruby.network.data_traffic_distribution.n9.n11            0                       (Unspecified)
system.ruby.network.data_traffic_distribution.n9.n12            0                       (Unspecified)
system.ruby.network.data_traffic_distribution.n9.n13            0                       (Unspecified)
system.ruby.network.data_traffic_distribution.n9.n14            0                       (Unspecified)
system.ruby.network.data_traffic_distribution.n9.n15            0                       (Unspecified)
system.ruby.network.data_traffic_distribution.n9.n2            0                       (Unspecified)
system.ruby.network.data_traffic_distribution.n9.n3            0                       (Unspecified)
system.ruby.network.data_traffic_distribution.n9.n4            0                       (Unspecified)
system.ruby.network.data_traffic_distribution.n9.n5            0                       (Unspecified)
system.ruby.network.data_traffic_distribution.n9.n6            0                       (Unspecified)
system.ruby.network.data_traffic_distribution.n9.n7            0                       (Unspecified)
system.ruby.network.data_traffic_distribution.n9.n8            0                       (Unspecified)
system.ruby.network.data_traffic_distribution.n9.n9            0                       (Unspecified)
system.ruby.network.ext_in_link_utilization    168789035                       (Unspecified)
system.ruby.network.ext_out_link_utilization    168789032                       (Unspecified)
system.ruby.network.flit_network_latency |337915094000                       |583227639500                       | 48749263500                       (Unspecified)
system.ruby.network.flit_queueing_latency | 64036590000                       |251804962500                       |  7430938500                       (Unspecified)
system.ruby.network.flits_injected       |    49540886     29.35%     29.35% |   104386733     61.84%     91.20% |    14861416      8.80%    100.00% (Unspecified)
system.ruby.network.flits_injected::total    168789035                       (Unspecified)
system.ruby.network.flits_received       |    49540886     29.35%     29.35% |   104386729     61.84%     91.20% |    14861416      8.80%    100.00% (Unspecified)
system.ruby.network.flits_received::total    168789031                       (Unspecified)
system.ruby.network.int_link_utilization    278794258                       (Unspecified)
system.ruby.network.packet_network_latency |182488442000                       |210357498000                       | 48749263500                       (Unspecified)
system.ruby.network.packet_queueing_latency | 42076332000                       | 82303007500                       |  7430938500                       (Unspecified)
system.ruby.network.packets_injected     |    30932106     38.38%     38.38% |    34800245     43.18%     81.56% |    14861416     18.44%    100.00% (Unspecified)
system.ruby.network.packets_injected::total     80593767                       (Unspecified)
system.ruby.network.packets_received     |    30932106     38.38%     38.38% |    34800244     43.18%     81.56% |    14861416     18.44%    100.00% (Unspecified)
system.ruby.network.packets_received::total     80593766                       (Unspecified)
system.ruby.network.routers00.buffer_reads    168789035                       (Unspecified)
system.ruby.network.routers00.buffer_writes    168789035                       (Unspecified)
system.ruby.network.routers00.crossbar_activity    168789035                       (Unspecified)
system.ruby.network.routers00.sw_input_arbiter_activity    184088187                       (Unspecified)
system.ruby.network.routers00.sw_output_arbiter_activity    168789035                       (Unspecified)
system.ruby.network.routers01.buffer_reads      7900946                       (Unspecified)
system.ruby.network.routers01.buffer_writes      7900946                       (Unspecified)
system.ruby.network.routers01.crossbar_activity      7900946                       (Unspecified)
system.ruby.network.routers01.sw_input_arbiter_activity      7944100                       (Unspecified)
system.ruby.network.routers01.sw_output_arbiter_activity      7900946                       (Unspecified)
system.ruby.network.routers02.buffer_reads      4966010                       (Unspecified)
system.ruby.network.routers02.buffer_writes      4966010                       (Unspecified)
system.ruby.network.routers02.crossbar_activity      4966010                       (Unspecified)
system.ruby.network.routers02.sw_input_arbiter_activity      4980613                       (Unspecified)
system.ruby.network.routers02.sw_output_arbiter_activity      4966010                       (Unspecified)
system.ruby.network.routers03.buffer_reads      2477687                       (Unspecified)
system.ruby.network.routers03.buffer_writes      2477687                       (Unspecified)
system.ruby.network.routers03.crossbar_activity      2477687                       (Unspecified)
system.ruby.network.routers03.sw_input_arbiter_activity      2478386                       (Unspecified)
system.ruby.network.routers03.sw_output_arbiter_activity      2477687                       (Unspecified)
system.ruby.network.routers04.buffer_reads    121927665                       (Unspecified)
system.ruby.network.routers04.buffer_writes    121927665                       (Unspecified)
system.ruby.network.routers04.crossbar_activity    121927665                       (Unspecified)
system.ruby.network.routers04.sw_input_arbiter_activity    131368047                       (Unspecified)
system.ruby.network.routers04.sw_output_arbiter_activity    121927665                       (Unspecified)
system.ruby.network.routers05.buffer_reads      3768735                       (Unspecified)
system.ruby.network.routers05.buffer_writes      3768735                       (Unspecified)
system.ruby.network.routers05.crossbar_activity      3768735                       (Unspecified)
system.ruby.network.routers05.sw_input_arbiter_activity      3811241                       (Unspecified)
system.ruby.network.routers05.sw_output_arbiter_activity      3768735                       (Unspecified)
system.ruby.network.routers06.buffer_reads      2728258                       (Unspecified)
system.ruby.network.routers06.buffer_writes      2728258                       (Unspecified)
system.ruby.network.routers06.crossbar_activity      2728258                       (Unspecified)
system.ruby.network.routers06.sw_input_arbiter_activity      2743262                       (Unspecified)
system.ruby.network.routers06.sw_output_arbiter_activity      2728258                       (Unspecified)
system.ruby.network.routers07.buffer_reads      2030348                       (Unspecified)
system.ruby.network.routers07.buffer_writes      2030348                       (Unspecified)
system.ruby.network.routers07.crossbar_activity      2030348                       (Unspecified)
system.ruby.network.routers07.sw_input_arbiter_activity      2030980                       (Unspecified)
system.ruby.network.routers07.sw_output_arbiter_activity      2030348                       (Unspecified)
system.ruby.network.routers08.buffer_reads     80502356                       (Unspecified)
system.ruby.network.routers08.buffer_writes     80502356                       (Unspecified)
system.ruby.network.routers08.crossbar_activity     80502356                       (Unspecified)
system.ruby.network.routers08.sw_input_arbiter_activity     85010556                       (Unspecified)
system.ruby.network.routers08.sw_output_arbiter_activity     80502356                       (Unspecified)
system.ruby.network.routers09.buffer_reads      3226644                       (Unspecified)
system.ruby.network.routers09.buffer_writes      3226644                       (Unspecified)
system.ruby.network.routers09.crossbar_activity      3226644                       (Unspecified)
system.ruby.network.routers09.sw_input_arbiter_activity      3271533                       (Unspecified)
system.ruby.network.routers09.sw_output_arbiter_activity      3226644                       (Unspecified)
system.ruby.network.routers10.buffer_reads      2275912                       (Unspecified)
system.ruby.network.routers10.buffer_writes      2275912                       (Unspecified)
system.ruby.network.routers10.crossbar_activity      2275912                       (Unspecified)
system.ruby.network.routers10.sw_input_arbiter_activity      2291662                       (Unspecified)
system.ruby.network.routers10.sw_output_arbiter_activity      2275912                       (Unspecified)
system.ruby.network.routers11.buffer_reads      1584672                       (Unspecified)
system.ruby.network.routers11.buffer_writes      1584672                       (Unspecified)
system.ruby.network.routers11.crossbar_activity      1584672                       (Unspecified)
system.ruby.network.routers11.sw_input_arbiter_activity      1585343                       (Unspecified)
system.ruby.network.routers11.sw_output_arbiter_activity      1584672                       (Unspecified)
system.ruby.network.routers12.buffer_reads     39782464                       (Unspecified)
system.ruby.network.routers12.buffer_writes     39782464                       (Unspecified)
system.ruby.network.routers12.crossbar_activity     39782464                       (Unspecified)
system.ruby.network.routers12.sw_input_arbiter_activity     40263668                       (Unspecified)
system.ruby.network.routers12.sw_output_arbiter_activity     39782464                       (Unspecified)
system.ruby.network.routers13.buffer_reads      2671292                       (Unspecified)
system.ruby.network.routers13.buffer_writes      2671292                       (Unspecified)
system.ruby.network.routers13.crossbar_activity      2671292                       (Unspecified)
system.ruby.network.routers13.sw_input_arbiter_activity      2720039                       (Unspecified)
system.ruby.network.routers13.sw_output_arbiter_activity      2671292                       (Unspecified)
system.ruby.network.routers14.buffer_reads      1818729                       (Unspecified)
system.ruby.network.routers14.buffer_writes      1818729                       (Unspecified)
system.ruby.network.routers14.crossbar_activity      1818729                       (Unspecified)
system.ruby.network.routers14.sw_input_arbiter_activity      1838883                       (Unspecified)
system.ruby.network.routers14.sw_output_arbiter_activity      1818729                       (Unspecified)
system.ruby.network.routers15.buffer_reads      1132539                       (Unspecified)
system.ruby.network.routers15.buffer_writes      1132539                       (Unspecified)
system.ruby.network.routers15.crossbar_activity      1132539                       (Unspecified)
system.ruby.network.routers15.sw_input_arbiter_activity      1134354                       (Unspecified)
system.ruby.network.routers15.sw_output_arbiter_activity      1132539                       (Unspecified)

---------- End Simulation Statistics   ----------
